[TITLE]

[JUNCTIONS]
;ID                      Elevation       Demand Pattern                 
 kD6E                    23.793157119    28037.527425                            ;
 mfXj                    34.176823078    33478.512283                            ;
 I6QH                    21.289719571    31035.327374                            ;
 7d3J                     38.76724694    24902.105084                            ;
 xFtW                    35.479070436    14595.386694                            ;
 I6Qf                    26.875538896    37382.661078                            ;
 HgOk                    28.778554022    45453.925752                            ;
 HgcU                     22.20570847    10595.934132                            ;
 zl1s                    37.128679654    17570.219173                            ;
 UVf8                    27.951372751    40168.103244                            ;
 iKzf                    27.157544126    34549.417623                            ;
 xFtJ                    32.611165227    48356.384941                            ;
 OUNz                    30.424643724    24175.795855                            ;
 aAB2                    36.540890246    40585.918822                            ;
 OUmJ                    25.407146711    20493.484793                            ;
 4WrV                    24.157883943    25562.406069                            ;
 dMDZ                    32.197011858    12840.079988                            ;
 iKzZ                     38.80112398    44912.705199                            ;
 owGJ                    22.869353591    43633.601156                            ;
 RIVr                    36.358214852    38524.288715                            ;
 OUtH                    38.161082636    16628.040341                            ;
 fuOl                    31.356690379    47169.650197                            ;
 CcPQ                    33.711214689    34683.184943                            ;
 4WYP                    30.778272341    23854.685856                            ;
 AnLF                     39.73934383     23965.33383                            ;
 c1Ym                    36.657628349    16843.571495                            ;
 19ZA                    39.217741608    15848.039322                            ;
 7dkh                    34.396494871    27540.698951                            ;
 KOlk                     26.58508934    27001.184707                            ;
 c1rO                    28.234280387    26922.129073                            ;
 c18L                    37.260595962    26412.946635                            ;
 Fsey                    26.679858608    27623.501957                            ;
 p5VK                    25.485886884    26160.685393                            ;
 p5EB                    27.830434209    39936.609683                            ;
 GJpA                    37.911042971    27064.431801                            ;
 Te1K                    23.223030238    27087.856831                            ;
 jNiR                    23.758896826    16740.393763                            ;
 5bko                    36.497999835    36732.775672                            ;
 4WQz                    37.422428633    10393.468163                            ;
 aA69                    20.540605351    33636.642744                            ;
 gRUn                    28.591707105    27493.543667                            ;
 MBNV                     25.07051396    42294.271101                            ;
 Dt7y                    31.064916123    26537.430349                            ;
 9XhC                    27.568107471    34120.181324                            ;
 S47T                    32.423396443    40491.358714                            ;
 0ChI                    20.947129783    47569.122943                            ;
 3j6d                    32.649218721    28019.621008                            ;
 tydN                    28.321661953    45267.879467                            ;
 4WXh                    30.867134055    38111.641521                            ;
 shas                    28.251586989    43770.345007                            ;
 3jfS                    26.268078636    24674.285345                            ;
 yaxl                    27.281615367    31607.943268                            ;
 AnoK                    37.990745713    14791.461942                            ;
 NHdz                    27.134140121    35306.079389                            ;
 0C1t                    25.473688192    34278.960941                            ;
 Zz4I                    25.835942338    24258.569076                            ;
 WiqA                    29.045641227    34817.506777                            ;
 q3IL                    20.152277654    44503.702021                            ;
 67Eo                    24.414156179    23116.306191                            ;
 FsZv                    34.249419721    29750.512515                            ;
 vTcs                    25.105361988    20478.079938                            ;
 lmii                    30.963879716    28605.552103                            ;
 XolA                    20.181198388    48536.742924                            ;
 9Xzg                    36.356541456     41666.21648                            ;
 J0oL                    27.226161497    15620.721615                            ;
 4WBQ                     20.18523587    42623.766653                            ;
 TeS6                    27.907311648    20627.878151                            ;
 Dt0Z                    32.256445966    35290.123737                            ;
 GJX1                    26.231279947    35598.222072                            ;
 7dhj                    31.815857763     26146.07855                            ;
 WiEJ                    37.690056997    48013.148165                            ;
 lmrr                    36.071723274     47744.54804                            ;
 c1QN                    35.167919193    12369.874992                            ;
 19qJ                    22.668534252    24571.383562                            ;
 vT4o                    28.259273863    33388.257897                            ;
 AnOd                    30.675689847    30384.102305                            ;
 gRbm                    24.822693813    37805.639843                            ;
 9X3a                    35.484165387    40106.111999                            ;
 XojJ                    24.588498754    37184.394238                            ;
 19Ov                    28.832095319    21378.498397                            ;
 TeWd                    33.634366828    15554.403362                            ;
 4Wr3                    28.193266317    32570.701601                            ;
 3jpb                    29.744689235    16535.498116                            ;
 J0Os                    27.661397586    30477.655864                            ;
 iKwZ                    38.199135474    29100.321645                            ;
 XoPj                     36.02649896    34589.366019                            ;
 jNGZ                    38.838090974    21769.215918                            ;
 shNM                    36.919565263    38035.326283                            ;
 Fsle                     33.23993557    27071.071259                            ;
 lm77                    34.961240447    25986.622646                            ;
 9X3d                     23.39785639    35917.808327                            ;
 uSBp                    38.471379315    34759.461848                            ;
 xFkS                    28.458035841    48336.207648                            ;
 ZzIn                    30.926205738    13637.228797                            ;
 dMvq                    21.773829271    19566.221132                            ;
 lm55                    24.091061459    30508.796229                            ;
 5bXR                    32.925058328    46294.782846                            ;
 0CXa                     34.60582517    11302.935001                            ;
 OUt3                    20.243482939    11075.841391                            ;
 GJKW                     20.97116415     31107.19347                            ;
 7d8w                    36.505539047    22250.834691                            ;
 zlfc                    20.628878899    47705.373538                            ;
 67PO                    25.390339084    10477.491597                            ;
 BLeE                    39.967016558    42203.675518                            ;
 fu9v                    29.410112461    20362.408245                            ;
 MBTh                    28.312769071    18317.551541                            ;
 MBzw                    29.428468756    20340.898421                            ;
 5bYd                    30.669027739    47504.169544                            ;
 OUTk                    23.532740041    33853.496855                            ;
 LrGr                    38.540275316     37289.03359                            ;
 bxZ9                    36.108860616    16496.130146                            ;
 iKUO                    22.370104928    34792.937152                            ;
 OUze                    23.555310789    30730.710017                            ;
 iKQj                    24.597506639    33818.776925                            ;
 c1F8                    31.039920388    43628.359636                            ;
 npBf                    32.498866737    22062.180408                            ;
 S4L0                    23.981572031    20294.380654                            ;
 npwA                    30.142884553    49965.994008                            ;
 eGiz                     31.49582079    29717.610264                            ;
 kDC2                    25.754143664    29794.720388                            ;
 q3mi                    39.963562773    46735.164251                            ;
 WiLe                    20.877585108    19344.448709                            ;
 CcLw                    34.117353392    42769.974985                            ;
 mfdv                    29.627853162    35743.994852                            ;
 9X8m                    23.196689305    41317.847288                            ;
 xFzp                    21.821179175    10870.749312                            ;
 NHW8                     35.26199482    13070.945018                            ;
 vTG5                    27.885939428    36266.184602                            ;
 tyJh                     34.25952791    37868.593076                            ;
 I6hy                    22.002140869    45333.788018                            ;
 I6he                    33.268821515    26761.630703                            ;
 HgxY                    25.751467113     32177.59952                            ;
 7d8H                    35.707158032    12623.704548                            ;
 c1wx                    22.817015657    19594.224695                            ;
 NHCr                    31.237531133    30569.107517                            ;
 jN5J                    23.226558831    23670.145367                            ;
 zl6O                    32.856170382    19407.432476                            ;
 iKky                    39.742584589    25615.971988                            ;
 4WhL                    20.711648486    45648.298602                            ;
 bx2c                    20.891795788    29209.817842                            ;
 c1rt                    39.966764198    44373.863823                            ;
 xFzH                    35.071323717    19135.518527                            ;
 aAXL                    31.584836378    25626.167105                            ;
 xFYj                    36.854263469    31413.158878                            ;
 owNH                    23.204922913    34783.035083                            ;
 iKwo                    21.129104974    15568.111924                            ;
 BLZs                    28.955789684    43864.208269                            ;
 RIsw                    31.729322314    24087.158651                            ;
 CcVh                    30.939222492    47482.036146                            ;
 Zzga                    29.762862106    33271.982723                            ;
 ya0V                    23.990174436    35377.587923                            ;
 yaiD                    20.544701836    42914.831338                            ;
 iKkE                    37.949700768    24791.026559                            ;
 I6Fv                     30.92042372    36377.366193                            ;
 I6Kq                    37.237280359    37706.738654                            ;
 KODY                    30.282287987    25601.668699                            ;
 c1Qo                    20.673852432    48666.133068                            ;
 p52X                    24.079944426    36576.745983                            ;
 sh8c                    39.350403894    19019.684691                            ;
 eGc8                    21.935511804    44225.394354                            ;
 I6Xv                    34.993770851    36538.645003                            ;
 5bYM                    20.770384118    24275.281741                            ;
 UVyQ                     26.92245214    36492.184114                            ;
 OUkQ                    27.616335749    27383.932914                            ;
 XoEl                    39.931347556    34131.147843                            ;
 aAWx                    21.725731908    39027.943036                            ;
 MBTs                    30.587293505    27840.679438                            ;
 Dtcl                    38.711019645    44880.743185                            ;
 gRFu                     27.60449108     46957.18438                            ;
 0CU0                    29.100326981    35638.124729                            ;
 tyWz                    30.078071411    46332.789291                            ;
 7dUd                    36.415331004    27471.266613                            ;
 Te6b                    32.781224292    19836.784904                            ;
 iK8P                    34.114995376    32138.714134                            ;
 NH1k                    39.903932822    18434.796149                            ;
 gRdG                    20.745846012    12196.997548                            ;
 fuxD                    38.541210523    40447.500047                            ;
 q30o                    35.830623808    28401.378365                            ;
 tyC8                    34.760930989     27033.12336                            ;
 kDJo                    36.809686428    13425.975001                            ;
 OUkj                    38.303221815    17699.445786                            ;
 WiPf                    23.263660121     23662.70989                            ;
 19Ef                    35.260383348    28524.495207                            ;
 LrNw                    38.561094124    49336.828087                            ;
 uSXS                    27.870472798    37179.202674                            ;
 vTIO                    35.051559433    42108.744946                            ;
 npKe                     35.13115681    35408.274072                            ;
 LrzF                    38.119182086    25840.274252                            ;
 9XkG                    35.355011509    44275.246527                            ;
 npFH                    32.690547659    40090.107484                            ;
 XoDf                    35.161393675    13241.780056                            ;
 dMqP                    20.780978168    31943.101659                            ;
 iKQV                    26.719113914    44336.510562                            ;
 4Whk                    30.646864086     35742.52779                            ;
 3jC1                    21.322248471    10138.395234                            ;
 p5sb                    24.359177259    34381.206905                            ;
 tyAr                    28.899061779    44843.865342                            ;
 J0Mo                    23.717532341    39024.007497                            ;
 Fsjl                     25.71411038    46222.784953                            ;
 MBQK                    34.122935158    22582.459699                            ;
 7dwD                    20.857364418     16384.64295                            ;
 vTa7                    33.820606477    35466.356729                            ;
 zlH4                     38.68626297    17627.597202                            ;
 Zzn0                    33.324928829    30426.301494                            ;
 dMZE                    25.995234554    31983.138268                            ;
 67L9                    30.835703623    38383.497749                            ;
 p5OW                    39.505016652    34913.004781                            ;
 GJd6                    38.927173116    11236.693305                            ;
 7dYU                    25.480955531    17718.524811                            ;
 npUJ                    31.146974873    39728.984728                            ;
 672M                    33.737658022    42924.497693                            ;
 BLlP                    28.082814869    19131.427164                            ;
 3jyA                    26.120562092    37324.678052                            ;
 lmII                     36.82105296    19529.675758                            ;
 S4su                    22.552727671    21850.480299                            ;
 uSFC                    22.650259564    24784.378113                            ;
 5bQb                    32.560064141    28067.692897                            ;
 Lrmh                    28.872759004     23110.41987                            ;
 eGuw                    39.059630894    29620.250127                            ;
 kDSV                    34.177894414    32295.991262                            ;
 q3uO                     21.76259828    38653.160327                            ;
 bxqi                    37.883373844    28687.965256                            ;
 9Xkb                    35.134806873    39469.090303                            ;
 iKYl                    31.642024698    21659.809316                            ;
 eG73                    24.142925275    36358.772958                            ;
 lmgg                    22.963546629    39049.880402                            ;
 S49N                    25.700756161    34014.648376                            ;
 mfbZ                    32.335770669    12303.559434                            ;
 xF3C                    36.142504812    36063.829681                            ;
 I6we                    30.735662926    41301.111981                            ;
 Ani6                    22.487298926    11813.366947                            ;
 I6wl                    32.341776526    49666.843169                            ;
 eG5k                    20.978920145    32122.023577                            ;
 Hg9Q                    33.196531866    47362.506148                            ;
 KOPU                    20.802233814    37834.595048                            ;
 S4MG                    30.874580075    26437.328717                            ;
 uSKR                     30.78425096    44716.792064                            ;
 7dYy                    28.512286915    11030.470587                            ;
 zlpM                    21.030685641    14576.248117                            ;
 iK8e                    39.686029184    10899.459007                            ;
 9XYW                    34.283916421    14738.872594                            ;
 5bhW                    25.815892143    18639.474573                            ;
 iKhs                    32.073534196     48379.83913                            ;
 xF3y                    20.146275336    15817.469927                            ;
 aAKs                    30.528312717     13925.62715                            ;
 xFhH                    24.672828363    37304.913657                            ;
 OUTy                    30.149343061    15872.711871                            ;
 q3gM                     23.59501474    18221.361156                            ;
 gR1N                    37.181696198    33206.472855                            ;
 owty                    33.925074309    43386.633478                            ;
 fucP                    30.074501179    40187.072398                            ;
 RIoU                    26.226967506    15960.301348                            ;
 9XrT                    33.554551719     45009.95485                            ;
 I6Ul                    20.767624117    48151.718369                            ;
 xF8l                    24.156160695    33761.015553                            ;
 kDAs                    26.612155072    43409.183722                            ;
 KOvQ                    24.703348689    18571.277926                            ;
 xFQJ                    23.969845332    24737.216361                            ;
 jN4H                    28.843265151    28849.166495                            ;
 KOZr                    38.731754436    16455.710227                            ;
 jNcf                    34.724736546    23642.298207                            ;
 5bQx                    30.597481202    26979.014908                            ;
 ow3j                    38.273423499    10838.800267                            ;
 UVer                    39.482416453    42148.937012                            ;
 9XYN                    34.170153144     36385.21644                            ;
 MBzo                    26.361882985    31433.159163                            ;
 Dt4j                    27.436522662    45625.785667                            ;
 OUrq                    25.009804273    22353.271999                            ;
 gRXg                    34.997335391    23939.362296                            ;
 7dhX                    38.104394208     23851.06752                            ;
 7drF                    23.545346589    31397.607548                            ;
 0CFg                    21.325761191    42234.408443                            ;
 KOVF                    21.609949544    30666.875883                            ;
 ty63                    25.694959368    32481.399671                            ;
 aAdo                    37.240885305    35761.533009                            ;
 Xo2D                    32.388372407    46768.856036                            ;
 shtx                     34.96361189    14825.051429                            ;
 ya7v                    25.223897708    38468.481107                            ;
 xFwq                    28.840516407    47945.642155                            ;
 ya5Z                    23.272537518    34910.930871                            ;
 p5M6                     37.79301567    42033.025358                            ;
 Wi2H                     35.99714615    14244.589853                            ;
 19PH                    39.660517254    47609.236388                            ;
 iKhv                    25.462865027    39645.651784                            ;
 J05i                    37.423659577    46089.141682                            ;
 typk                    21.741446781    46897.666295                            ;
 vTnM                    23.451105799    32551.513985                            ;
 c1hT                    24.419946745    39143.051337                            ;
 BLPM                    33.908713466    17996.104239                            ;
 ZzmN                    26.994034577    41774.419221                            ;
 FsEq                    32.326294422    16011.604097                            ;
 c1XY                    39.239248415    38359.292154                            ;
 XovH                     23.76937193    15612.921603                            ;
 4Ww8                    21.230945377    28702.026458                            ;
 Zzug                    23.062083052    16534.968809                            ;
 3jSW                    20.538174918    34008.629875                            ;
 HgIF                    25.338651829    27772.117542                            ;
 p5Ld                     24.11540443    26900.105925                            ;
 Tep1                    29.444620587    25535.727904                            ;
 J0xO                    39.732374663    38683.301109                            ;
 lmnn                    24.473837531    37725.707297                            ;
 4WFr                    22.668528956    33741.126857                            ;
 FsDj                    29.385972249    25488.330955                            ;
 TeRp                    39.868599656    25612.899754                            ;
 lmcc                    35.400269373    15760.379257                            ;
 3jJC                    27.373596167    40620.472301                            ;
 OU8r                     24.78559615     33147.31175                            ;
 Zz0u                    37.951747691     49845.00888                            ;
 OUz8                     33.93009982    21901.396946                            ;
 GJbp                    27.892802395    11952.926283                            ;
 aA1M                     23.09395685    43711.091362                            ;
 7dQB                    37.894270737    20346.817045                            ;
 67Vx                     38.12468951     49995.64827                            ;
 KOLX                    23.266803029    12842.895801                            ;
 BLj2                    28.583089253    36608.576886                            ;
 MB3U                    24.584162971    27323.999389                            ;
 bxE7                    30.198731293     14615.90365                            ;
 q3ax                    31.368495424    27996.086392                            ;
 DtG2                    38.314172868    14486.816893                            ;
 5br1                    39.120153583    33671.078465                            ;
 kDyx                    25.466736964    47673.230225                            ;
 AncS                    23.829464942    48988.642865                            ;
 UVlh                    39.684971498    32920.940345                            ;
 9X81                    37.016203271    13040.511578                            ;
 S4og                    34.559399032    32568.421574                            ;
 LrTB                    31.294926758    18263.063572                            ;
 kDRL                    26.497083463    14172.340423                            ;
 mf1q                    34.741054638    44484.212083                            ;
 bxLI                    26.439032246    48459.450163                            ;
 I6Uj                    29.414018372    30014.573456                            ;
 Hgir                    31.024087283    47192.822836                            ;
 9XwS                    24.447960818    40418.343762                            ;
 7dQe                    23.861377609    46871.201762                            ;
 I6Bj                    37.406053672    12752.986022                            ;
 zlCx                    32.910252587    31914.336444                            ;
 xFke                    24.055999465    17226.508011                            ;
 0CWT                    32.678710596    22895.774494                            ;
 mfCV                    20.491042894    21245.326729                            ;
 67x4                    27.663840558    17089.756097                            ;
 NHSh                    30.282629154    14478.380361                            ;
 owTe                    28.687281301    21982.746251                            ;
 RIOB                    38.388799834    15830.531546                            ;
 c1U9                    33.764663426    34470.943548                            ;
 CcsU                    23.175037339     20245.68723                            ;
 4Wws                     34.15507534    24058.462347                            ;
 eGIQ                    30.230268579    22313.721515                            ;
 dMsO                    24.996294574    21858.126469                            ;
 iKY2                    24.310498668    20762.639106                            ;
 AnMb                    30.005016718    32111.958364                            ;
 uSdA                    25.110615232    23812.346647                            ;
 c1hM                     35.30697309    13458.043073                            ;
 5br9                    36.043342401    35264.652323                            ;
 iKBE                    31.811954902    49022.141171                            ;
 bxsn                    33.583958618    47838.706789                            ;
 eG4Y                    23.298908595    49716.471585                            ;
 MB3O                    31.212612544    28444.506456                            ;
 DtID                    36.152255074    25718.112397                            ;
 shY4                    20.329908818    25636.402733                            ;
 4Wdi                     21.50951799    26693.753889                            ;
 c1U3                    36.348718774    25906.322351                            ;