[TITLE]

[JUNCTIONS]
;ID                      Elevation       Demand Pattern                 
 yZdw4WWtz0               25.45138605    49990.725398                            ;
 vC5uVXRiez              25.308234826     37408.10581                            ;
 m2bAyzPbvf              28.767369464    16826.383016                            ;
 HpRcWEM86n              28.546747942    48330.455603                            ;
 uoJoPnF74Q              35.580304707    44030.813032                            ;
 JYOnfvPD4T              26.604384836    37863.279121                            ;
 PVAavJWzPI              22.079176304    13887.020954                            ;
 3ny2VwIB2R              21.870064787    15231.990331                            ;
 afvrZuHEqF              34.161075726    46331.750924                            ;
 t1FiYbk5T7               38.54775829    21137.734558                            ;
 BdGaqrTFVi              22.838801816    32388.524993                            ;
 OP4NH51dSE              20.308739922    10350.140948                            ;
 VbPjDYh52K              25.879021416    16252.711947                            ;
 6wFNWhYZzE              23.977903178    45565.761991                            ;
 3nenAwIB6s              21.157421381    10791.533625                            ;
 KGt1GROlK3              20.767656308    49392.815121                            ;
 nl3J1IXulN              32.114973113    40767.797175                            ;
 Tr3BCHVPum              26.287951297    17564.321045                            ;
 pkTS2jcMDv              28.577370108    11836.690596                            ;
 zMsOvg32ZP              31.677887899    20243.662554                            ;
 W3LRN6ncZh              24.594548779    37712.247232                            ;
 W3d3r6ncm2              29.799269083    37638.106913                            ;
 AD4UcOu7ED              21.084462165    18493.669478                            ;
 liIg6QqAT5              35.375703919    25702.892572                            ;
 UFAS0D7ZzP              35.827425312    27453.741994                            ;
 pkE8ljcGS5              26.123589382    26012.894547                            ;
 wIhHUKHBZX              37.658256016    32209.256927                            ;
 NEtMRmMtux               28.44181876    33081.892375                            ;
 MUzgvAPZWk              26.301633294    26023.672259                            ;
 MUmJeAPZ9Y              28.269376667    36302.060739                            ;
 Hp1NPEM8up              26.717618788    39251.366891                            ;
 ZueM93phe0              27.651011794    45037.310639                            ;
 pk2VxjcamG              39.860602009    21384.835793                            ;
 W3SIk6nbpU              33.995633867    20874.420033                            ;
 RThy41VKMJ              24.417517354    46012.815552                            ;
 4Of9KinaCn              38.690789212     14714.88147                            ;
 4O0VJinZQh              26.703763716    39519.507178                            ;
 afvUMuHELP              21.515097736    30577.000581                            ;
 6wkiMhYl6y              37.144743287    30687.937733                            ;
 zMs9ag3tER              39.860369858    10185.790582                            ;
 0zYS0fghQr              31.663669498    37137.461179                            ;
 liuYCQqUaM              38.504177395    43831.298919                            ;
 ADz1DOucAh              39.808311213    14197.912725                            ;
 W384R6nqrG              25.516153833    20559.472646                            ;
 Tr1iZHVPT8              37.478378614    25570.134031                            ;
 P5KDuRJeKMLk            38.708441762    15107.539312                            ;
 0zuHVfghyh              38.119206599    26805.096583                            ;
 5J4ZVqguP0              30.893295863    42242.870364                            ;
 UF28bD7nz2              38.321155724    42696.952555                            ;
 wIWHtKH6sy              35.715014973     40072.24255                            ;
 zMs5Zg32fR               25.42520138    19586.315382                            ;
 fgnlgojeX7              31.879036528    42450.699067                            ;
 LqlWMdPyHy              32.228520284    11380.299185                            ;
 JYOSCvPJKL              32.158018129    28909.977432                            ;
 pkTF4jcMBO              36.959674554    40061.258887                            ;
 uoXBsnFrw1              36.525134356    47692.384066                            ;
 i5oy0LIBcI               34.18867145     12975.43254                            ;
 76pt1Spmyo              30.992001476    19277.839721                            ;
 3nWWvwIB7c              28.865766415    24756.077974                            ;
 PVO5zJWzTJ              38.754795555    24764.732186                            ;
 pkHASjcjNv              22.442712318    28168.576616                            ;
 smCgM0NVIo              30.722669174    21094.481546                            ;
 RThqP1VPwW              26.480479541    16151.142078                            ;
 MUmKTAPpoQ              20.964330502    35658.172642                            ;
 6wkiuhYlXC              36.212597997    16647.576677                            ;
 4OfeMinZQj              24.603741049    19034.395628                            ;
 KG6AXROjHJ               33.90384067    39387.976389                            ;
 QLnF9BwxXY              21.931312297    48843.252247                            ;
 JY5xFvP16Y              25.829228341    31591.068966                            ;
 r8Gxlp3dx5              31.999820226    31475.966073                            ;
 qvi3JezcSi              35.259513634    40493.588043                            ;
 1H9uRNzSxL              31.439377752    36252.800913                            ;
 8yQmdkScjX              34.320056094    21835.538361                            ;
 4lkF02iByeFZ            26.220302221    43018.352411                            ;
 cSMkpUxUiA              29.954406088    26579.332374                            ;
 W37Re6nZ2C              21.963024712    28016.215641                            ;
 tVlHnnbLklIL            35.153156901     48663.62663                            ;
 KGhjhRO4oh                21.1004534    47643.989286                            ;
 ADgCvOu7Q1              31.106265069    38921.723306                            ;
 QGjoM9BGWjX7            22.411480165    38693.903107                            ;
 TrRn6HVytr              26.138883887    42134.584065                            ;
 Tr1UfHVyRj              38.416409337    40060.915293                            ;
 2cmTAMt7Qr              37.912578786    24613.400369                            ;
 1Ht1ENzby9              28.681857285    48828.534587                            ;
 xtPfDVmRp8              31.230383928    42468.537584                            ;
 j2v6XfcJVYOs            37.036127551    33011.283769                            ;
 o4CikleWv9              28.088441403    42008.145227                            ;
 vCAEgXRbvL              33.063562033    21677.438429                            ;
 kWr2t7okU5              32.002891021     25374.83632                            ;
 cSExJUxF0b              23.615183197    18370.317107                            ;
 pkT7pjcMl8              26.156007394    37502.856581                            ;
 sCoreQ0TmW3v            34.415093921    48233.279041                            ;
 TrKbqHV9hk              39.213968973    43240.724604                            ;
 r8GmDp37ee               37.84126144    42261.885511                            ;
 VbJ0xYh5oz              23.059331654    29447.921133                            ;
 1HbMxNzFvm              20.240039112    10580.311244                            ;
 4OQLOinamK              38.942274093    42226.512182                            ;
 5JiKHqgStP              21.860849262    26765.069991                            ;
 C0vcXaisO7              22.730155526    11104.728391                            ;
 5JiN7qgSy4              30.967721135    30157.532459                            ;
 OP41751drZ              37.613271707    38152.970204                            ;
 3nWOgwIBVp              20.110119274    31575.194611                            ;
 linVeQqUQt              30.167767745    35942.147699                            ;
 XaWV0ZfqZy              29.091395798    41073.322152                            ;
 4OQAlinfL2              27.660710687    31128.682128                            ;
 P5XRBFJeRwRu            36.076007858    20428.161561                            ;
 sCoptZ0TmWj8            29.180875888    49953.197049                            ;
 dr7YfS8sebDB             24.94463245    34648.614658                            ;
 C0vr7ais3c              25.934328963    31658.063676                            ;
 GREOanTjvcPX            26.102668428    49492.792872                            ;
 4ldFxWiBOEAY            29.209544618    31546.271586                            ;
 t1x8Mbk5qi              22.762087824    48125.631598                            ;
 DxATUPN2KF              38.925790213    15298.665773                            ;
 C0P0iais2J              36.110067213    13209.159226                            ;
 8pxCTlkEpQ0e             22.78925905    42548.084064                            ;
 veKNVwXDLI9V            22.177890646    11312.603137                            ;
 9RFJRt3xoT              37.842874266    27565.139727                            ;
 kWpMp7omlN              21.786419634    47567.673871                            ;
 3nWS1wIsFj              24.330757388     48881.60516                            ;
 0zCcPfg4Od              20.522506101    33631.125375                            ;
 UFMwcD7Dnf              28.103090754     15459.42976                            ;
 MUzhsAPHsH               28.75460543    28695.768705                            ;
 MUzBfAPHCM              35.522452785    24947.432927                            ;
 t1xZNbk8Nr              20.466890218    29360.344908                            ;
 nl3hlIXxAQ              31.662298562    20166.366761                            ;
 5JivJqgZhN              38.011894784     12183.80151                            ;
 F9U9rxY5Kf              25.964798629    12535.633393                            ;
 LqQeJdP8Cq              20.326942055    33696.254473                            ;
 r8Txip3Euu              20.380972873    36105.661032                            ;
 eXdRNyrlnB              31.116736382    24789.253492                            ;
 5JibLqgEZ8              27.449455386    36964.108008                            ;
 xtDTJVm1RQ              33.934973496    15455.944768                            ;
 ZuygG3pLK0              37.428786764    13079.647547                            ;
 zM0Eug3KtG               37.95071469    41006.565301                            ;
 ADgjnOuz0L              33.930116647    32938.063708                            ;
 kWpFe7oRH1               20.35290625    48347.703169                            ;
 i5l8cLIeqh              39.742699052    22712.305206                            ;
 Xaew6ZfVm9              25.025447837    41538.285771                            ;
 6w7bPhYlwv              34.035992818    27705.778098                            ;
 ShcHJFv4I7              38.094884534    44079.428983                            ;
 UFM8hD7DLU              27.808971682    26503.445986                            ;
 9RFvRt3xK0              30.476768473    22799.241234                            ;
 PVOnyJW9ja              37.698967677    43693.841928                            ;
 UFM5jD7Z70              21.312235398    30499.715903                            ;
 deQiU8PvFA              32.462399828    45927.434682                            ;
 uoZc1nF7IW              35.584059418      45908.0311                            ;
 TrRJwHVPi8              31.139139916     21565.98808                            ;
 ADg37Ouc6U              23.212263791    39963.227105                            ;
 6w7gmhYlvf              26.214002321    28215.191336                            ;
 9RFJCt3xoy              24.202986034    43817.737306                            ;
 t1xD3bkvLZ              22.010347663    46100.515101                            ;
 9fnjxstnziTs             37.55562409    13348.037286                            ;
 Oi6C2H5KMmWG            33.042255576    31525.777015                            ;
 u3EFyRnIJBBb            36.488107718    17276.116422                            ;
 zdpVUzg0Vi02            38.070192978    35396.748005                            ;
 veR01SXD5WpB            37.474655723     13870.61234                            ;
 kWpri7oRH2              39.279580288    10230.903255                            ;
 o4uaEleWLS              39.647021572     39890.97407                            ;
 QLIIPBwxKX              28.026544586    27655.712717                            ;
 t1xFrbk5ZY              25.178641704    16729.952014                            ;
 smYYC0NVji              21.234391786    30937.891642                            ;
 NEsd2mMpBC              30.300939297    39723.088699                            ;
 DxOw8PNeQw              38.830033752     13126.71465                            ;
 XayNHZfqND              29.887004925    48756.886127                            ;
 BTDDsHrRb312            26.817470553    40844.050038                            ;
 veRwDOXDgH9H            31.643435041    27985.594349                            ;
 DxOLlPNeeI              20.478660388    46086.492087                            ;
 UFMrkD7Dce              22.016054201    19010.588469                            ;
 JYq76vP0EN              23.415473361    42904.191517                            ;
 PV515JW6es              25.837996458    22237.774244                            ;
 gAoF24JuFg              23.912604289    31078.583031                            ;
 1b4JVjNZuGRQ            21.455887258    41800.416902                            ;
 u3HkxLnI1Zmd             29.56593745    34436.458631                            ;
 r8HZvp3Tbi              27.230127012    40903.148392                            ;
 BTU960rRbAlQ            32.613285359    31833.542783                            ;
 5JLbgqgEaD              22.873944403    16370.583952                            ;
 pkHrmjca4b              33.918374516     18626.18388                            ;
 zfdZpZg0JgWv            37.878821137    10457.455132                            ;
 xtPf2Vm19x              38.175310396    11590.361015                            ;
 8pVaXXkEiCtb            34.226753529    10710.079479                            ;
 t1Vgzbk8ip               27.74894682    21635.259285                            ;
 EjNay2BKlz              24.033474133     35015.46633                            ;
 m2sXQzPOds              30.925097174    31302.613103                            ;
 Hp1T6EMt7I              38.322647532    27574.630715                            ;
 nlwW8IXxKf              30.290688413    32674.571967                            ;
 C0XA2aibtG              34.812473097    24219.463899                            ;
 XaygHZfqnW              24.728324095    20685.943429                            ;
 j723fcVhJ6              25.409429061    14064.124656                            ;
 eX80cyrBej              32.079198017    35368.473326                            ;
 8ypnNkScbk              24.054302958    19428.444364                            ;
 fgu1RojORC              37.999814248    30992.744174                            ;
 C0XeEaib37              37.015778816    43637.195391                            ;
 zMfG9g3KqM              28.273032235    23063.940957                            ;
 pkExIjcaL7              24.305391583     11053.47425                            ;
 MUgBfAPHvj              29.551497199    37134.722175                            ;
 FDYngNxeVJ25            27.591365638    34352.094738                            ;
 7cxuBnS9FQQp            38.905918197    29203.894748                            ;
 cSEV6UxUJw              22.122806922    11677.373088                            ;
 0aljqXfqf22r            32.180234279    43953.149016                            ;
 ve3mdzXD5OKH            29.017324013    17184.902608                            ;
 m04IXVz4aD10            27.338751556    47832.864168                            ;
 HpRh8EMNyg              31.133148476    12058.825387                            ;
 UF2Y4D7ZY7              21.819618649     15530.30929                            ;
 i5oyOLIjHi               39.88101756    39616.420333                            ;
 LqBJYdP8BF               37.53998467    37287.463074                            ;
 ZWNpja3DdqlW            34.878539473    40254.460653                            ;
 ZuWje3pRjH              37.691590564     16755.06142                            ;
 JYq1zvPDKN              21.985536741    29925.897329                            ;
 gAon94JfvG              26.450440211    12973.019167                            ;
 gAond4JfCK              28.033754877    19241.112855                            ;
 UFA8mD78zj              24.899933856    32786.730331                            ;
 DxOk9PN2WZ               23.94766591    41735.544631                            ;
 HpNwNEMNy1              27.645070136    40893.314973                            ;
 YsvZRCZxrt              34.649641512    18612.988868                            ;
 m20orzPleg              35.545538781    36953.989706                            ;
 IQKgWGoOtp              23.687429828    25369.748268                            ;
 8ypjnkS66r              38.312446638     18362.54727                            ;
 i5QBHLIee1              35.431098054    10083.097749                            ;
 ShUX7FvICn              24.480303388    12057.298473                            ;
 F9D3fxYLQK              38.010488842    24888.462676                            ;
 o4nV9leixc              25.319071741    34135.685685                            ;
 JYq2TvPA9E              21.142675786    44385.680092                            ;
 cSMGMUxU3G               21.82158381    33251.777569                            ;
 1HbH4NzbOX              23.182298016     40300.31502                            ;
 bNY4isX7xf              22.520684618    18037.915403                            ;
 PV5IcJWzb8              20.808393033    47834.952172                            ;
 Tr1wNHVyeF              34.443798106    39169.787401                            ;
 j72aZcVpsf              26.104905282    24882.808432                            ;
 o4nC7leivV              26.425893028    42555.990436                            ;
 PV5yiJW9Zw              37.319614863     25198.10808                            ;
 t1V4lbk5Ns              28.336844359    14229.875755                            ;
 fgudhoje0i              24.085428044    16129.848191                            ;
 Tr1UsHVy8Q              20.353978371    35299.367045                            ;
 fguZAojeWG              23.678170465    17530.162043                            ;
 UFABoD7ZL1              24.451567217    16285.337072                            ;
 JYqc3vPAQR              38.096975664    42614.515796                            ;
 PV5QoJW9Nv              34.593507705     37251.28123                            ;
 ShpteFvIdP              30.761958849     26371.05292                            ;
 qv4ZVezhDm              30.801212129    23123.535393                            ;
 YsD9TCZbi2              28.431306596    11951.506233                            ;
 Xa5xUZfVMI              21.045189454    26791.400541                            ;
 gAb9n4JfXc              20.064245262    33989.447572                            ;
 VbPNqYhdSB              30.282060433     46058.09213                            ;
 fgaT0ojB4S              39.047937647    29927.956402                            ;
 JY56bvPA51              39.531525876     18681.35222                            ;
 PVO6CJW9MH              24.224554335    28312.904758                            ;
 LqQKYdP85J              28.636164658    18501.982039                            ;
 j7EGHcVHTo              36.412535785    46915.414917                            ;
 o4uICleicw              29.554420445    35154.975288                            ;
 JY5qevPALk              34.899554096    35577.682885                            ;
 QLITbBwxyO              35.182601383    16731.446819                            ;
 LqQDYdPqcw               32.37140111    23503.326446                            ;
 3nW0iwIBqi              29.234401972    49852.190743                            ;
 eXdC1yrU4b              21.121206643    46405.725884                            ;
 5JiHIqgZox              21.181073282    16056.688688                            ;
 afZ2AuHEde              22.585189612    41951.118764                            ;
 XayC1ZfQoX              30.341456925    25954.966893                            ;
 3n6F8wIT5j              27.971004904    42388.110452                            ;
 hKFDt9i5pv              23.006074998    49756.192359                            ;
 C0XEIai7er              36.479746791    42147.210797                            ;
 LqBG3dP8nj              34.109402564    32389.748263                            ;
 T12XsOHiB2CC            29.561426091    43932.332153                            ;
 HNMX1BEx7cB8            27.044427595    21184.464611                            ;
 0al7IifqaD6F            37.895242317    44382.509787                            ;
 bNxuYsXeaa              29.848233424    10188.371799                            ;
 zMssrg32Z1              26.030767051    45438.729634                            ;
 YsXqACZEKP               21.68933087    38570.287966                            ;
 nlwnnIXx1V              25.483920622    21154.599434                            ;
 2cgorMtZGZ              36.953893146    28580.006671                            ;
 UFAlMD7Da2              20.386873913    39080.744469                            ;
 deBGn8Pymd              37.037727874    36013.449997                            ;
 qvLl0ezdez              25.246575279    46691.507561                            ;
 GBKeOTKEhy              25.246529464     18615.12448                            ;
 IQwWrGoc9k              23.839871593    34465.894012                            ;
 3nWkvwIThC              39.731593751    10767.144745                            ;
 nl3OzIXfe2              38.095471728    27206.132909                            ;
 eXdl8yrFUI              35.630571999    15618.111971                            ;
 YsJtOCZEc3              24.197473651    21583.804329                            ;
 5J4k8qgZut              39.404033451    12567.083554                            ;
 t1F58bkvK9              20.144231647    25134.655351                            ;
 VbDLlYhd7k              24.273510814    29297.000818                            ;
 vCq1JXRaOb              23.563298184    37263.159801                            ;
 eXdjeyrFo5              24.584434819    27919.455723                            ;
 GBKbaTKwGR              22.847138614    21236.774122                            ;
 NEbalmMpKN              37.077381419    38241.016474                            ;
 zM0JSg3KIp              33.536592609    49890.836716                            ;
 VbP8OYhnwl              27.652946506    24303.941755                            ;
 t1xT3bk8GV              31.041748495    32051.372184                            ;
 0zCtlfg4mc              26.446933361    44419.444403                            ;
 OP4IV51lYv              33.235242747    21332.656883                            ;
 pkHQcjcak7              32.786345264    27678.863816                            ;
 IQKO2Go3Z8              31.542228311    20836.120947                            ;
 hKFlf9irIe              25.181463226    14443.697882                            ;
 RTt7d1VHM9              34.273912075    20893.420377                            ;
 wI61wKHadC              31.316060058    40593.314643                            ;
 eXLOEyrFsE              30.525144388    24322.527015                            ;
 W3ktB6nbxa              21.170810628    11697.455819                            ;
 KG6KmROlif              29.347375306     12343.82329                            ;
 cSMgqUxcNy              39.753458454    12605.376765                            ;
 pkEgDjcasf              27.428848582    37327.661452                            ;
 QLGw3Bw1Jq              32.573465275    23400.905978                            ;
 m20nWzPOmu              27.619511326    25017.554562                            ;
 2czr6Mt7De              29.231499354    44969.263677                            ;
 vCqKeXRtD7              25.894986532     19407.82771                            ;
 ZuyRa3pLbG              28.496384095    46143.502583                            ;
 W3ktd6nbxL              24.476369029     20446.10124                            ;
 76jGHSptAF              28.742776655    20055.041491                            ;
 DxMe8PNP29               22.52579543    27299.324754                            ;
 gA0B94J00g              35.483261681    36292.828673                            ;
 F9cvExY55T              23.052112948     31447.95604                            ;
 0zYH3fgOhL              28.316411423    28038.246693                            ;
 pkHXDjcGxU              20.158278816    34329.751694                            ;
 yZdYwWWDDH              29.808287354    23415.146355                            ;
 1HtnPNzmfw              24.963739843    32326.254724                            ;
 F9UDTxY2Kz              39.796526881    23692.446456                            ;
 RT9BK1VH5j              26.210422295    46367.875574                            ;
 r8TkEp3TaJ              35.423738017    47496.469102                            ;
 F9UDGxY2pr              39.173218504    31751.467154                            ;
 3nWfswIsTl              32.194217501    49511.018061                            ;
 Lql4AdPbce              23.892447481    32456.600639                            ;
 BTjodtrRbiQn            21.803253274     11240.33566                            ;
 Shjk0Fv4jq              27.459729128    29763.906384                            ;
 HpRXaEMtaK              27.451755721    29883.226592                            ;
 afvcxuHO3n              30.955668479    17495.566784                            ;
 nlZD7IXxnC              33.747147279    20745.174704                            ;
 o4aTXleimQ              26.764096474    20730.400778                            ;
 nlZ1mIXfgy               32.61797608    37389.821706                            ;
 qvLDHez5NQ              20.142530922    41644.746598                            ;
 9RF37t3xiB              30.492144061    39191.806542                            ;
 9RF3Pt3x4I              32.993996253    30091.122376                            ;
 DxM9OPNeE8              25.749917806    24652.290275                            ;
 j7HWIcVhxA              39.030973336    41253.392261                            ;
 OPgCp51lXw              24.277034043    19956.169466                            ;
 hK7MX9irfQ              28.472957593    38098.306318                            ;
 ADzYQOuzFo              29.510160999    36485.299188                            ;
 Zuehg3pRhn              25.316046062    46540.150435                            ;
 bNxGEsXE4t              20.920138687    33729.046696                            ;
 F9cZyxY2kx              29.851057154    42073.353036                            ;
 PVAh0JW639              29.260223217    38740.281528                            ;
 uoX1ZnF9aT               33.58769442    21089.996078                            ;
 K9N5ooRD7YMT            27.766665811    19263.044939                            ;
 8pSfA1kETNCs             22.11567538    45067.721966                            ;
 LBksg0djChM4            31.039379262    44644.099354                            ;
 T12ZcSHiB2Q9            27.700772819    42068.005635                            ;
 hFbdR89uv6he             37.35562015    30940.832175                            ;
 UAJT78DBihe9            31.980631395    23407.173506                            ;
 6StiEQhvAfGg            37.133844689    46838.648118                            ;
 aZIXyQu2Qzxe            35.437079741    21789.294745                            ;
 C0vXwaibgu              28.085443544    25061.578637                            ;
 0zCaCfg47w              23.391704305    28200.905182                            ;
 wI6b2KHaRn              24.554807653    34454.117398                            ;
 9RFKRt3x4G              38.200431694    31781.847436                            ;
 BdG52rTvFb              25.422820217    39561.782334                            ;
 NEbM0mMSMJ              21.643126679    15519.978241                            ;
 ZuyGc3phHY              22.451805766    21940.208917                            ;
 uoZD1nFXWH              21.949552862      28756.2828                            ;
 kWptx7oRIV              30.908595714    28427.272174                            ;
 eXdfzyrUsH              38.640298974    45940.112382                            ;
 C0voyaisom              39.957029465    41215.561091                            ;
 DxAYaPN2Nz               39.60058218    23685.872828                            ;