[TITLE]

[JUNCTIONS]
;ID                      Elevation       Demand Pattern                 
 OiBeG                   79.988924937    764745.46434                            ;
 SjpdY                   98.568276718    521642.17256                            ;
 kXEU                    78.333530931    617647.00158                            ;
 DqXow                   83.489421483    514216.36505                            ;
 JZ56e                   103.87919752     442979.2147                            ;
 evi67                   126.88521998    706908.25331                            ;
 sMMH2                   130.34072833    373992.98314                            ;
 cne5F                   122.23692365    536836.87975                            ;
 LE7l                    73.176767886    787927.29586                            ;
 yjr7S                   89.697450635    653692.95419                            ;
 Cegr2                   99.356943996    451119.05809                            ;
 LOdfl                   107.11105107    636190.61036                            ;
 kFy7K                   120.47679275    451624.20143                            ;
 1foc4                   125.31182808    648483.26096                            ;
 yjrmv                    79.22823144    359366.11465                            ;
 6SmdB                   109.47867355    742508.18495                            ;
 RvxD                    99.841172938    516481.08338                            ;
 kXek                    105.68932839     409656.7075                            ;
 ItbwV                   88.844934085     647277.0774                            ;
 RfzpL                   86.621667667    336620.93685                            ;
 7GHr                    80.802081266    772765.29724                            ;
 cnlqd                   109.73293106    575041.01002                            ;
 MiR1i                   70.530555794    680404.26503                            ;
 nT49P                   87.265170816    228365.56758                            ;
 kBfEk                   123.57309022    415237.06044                            ;
 1f7w8                    95.98777045    770783.75051                            ;
 kXy3                    95.607656849    667415.86515                            ;
 HEIUO                   108.69974641    677310.55357                            ;
 Iul9g                     124.321501    649978.65739                            ;
 AqvR                    104.22448996    380078.45888                            ;
 1p6p2                   73.191353908    182242.88366                            ;
 7aB6q                   114.21345859    683548.58121                            ;
 MiPaL                   96.853412626    435359.48149                            ;
 dAL7t                   73.634168923    523913.15171                            ;
 FSFl                    106.63039456    618779.10659                            ;
 oxCv4                   123.56890766     787532.6817                            ;
 AHkok                   75.422249788    547678.81244                            ;
 o4R0K                   129.85439871    612018.40386                            ;
 ZPFht                   90.025501648    572340.87796                            ;
 vEXWm                    91.02518447    315174.09069                            ;
 cneiU                   116.83445771    232089.58343                            ;
 BK4wQ                   83.355706755    572515.95236                            ;
 icHjI                   114.21332105    529785.74153                            ;
 SJTUK                   125.78177762    190872.45137                            ;
 t3o8E                    87.20186532    645325.32094                            ;
 0aZK9                   111.30575671    679970.85539                            ;
 SlOea                   85.593209644    222762.11166                            ;
 1R1Ai                   127.59130773    669624.59897                            ;
 kFela                   119.15133012    666011.28386                            ;
 voG8Q                   79.695572243    167677.29044                            ;
 gmZd7                   100.22730992    190357.32413                            ;
 GtE07                   130.54104986    368215.19654                            ;
 ClzX2                   105.63655284    565199.81344                            ;
 ngvpR                   107.21287916    614643.80607                            ;
 tYcmA                   106.18503301    557627.21919                            ;
 thRm0                    68.93056502    435384.64761                            ;
 OIQOa                   96.272672795    356119.37399                            ;
 fqc6W                    114.7830326    619411.21789                            ;
 xBbE                    82.064648007    347162.60973                            ;
 Mnrwt                   126.20833152    364904.15047                            ;
 5GF5h                   114.26291568    677526.63809                            ;
 UpGu                    116.51544157    439539.03477                            ;
 oxS36                    79.21445741    746285.61823                            ;
 mTLQB                   111.58608049    623327.87752                            ;
 x7v0N                   120.74053566    695455.28546                            ;
 cnjNV                   68.255763469     478804.1278                            ;
 AH3S9                   79.292930478    371891.38235                            ;
 mTPnt                   113.64609052    621138.46178                            ;
 feYQM                   100.25722339    648939.00476                            ;
 O9Cdv                   127.99459202    289540.57745                            ;
 LE4v                    122.73511973    754688.64946                            ;
 u36Fj                   71.270106909    738734.66561                            ;
 CePG9                   111.58576762    372070.54206                            ;
 MiRgA                   108.92819434    602465.11232                            ;
 MiSPq                   126.59141283    466165.23718                            ;
 e20eg                   90.526598638    470481.53445                            ;
 SJzq2                   115.02025635    289527.02646                            ;
 5m67                    110.03315958    280022.07843                            ;
 7nF19                   75.015448785    554948.92315                            ;
 GrYH                    104.31988643    296030.63638                            ;
 HEhV0                   94.559656011    609342.87447                            ;
 LOpgu                    68.25642455    250568.54305                            ;
 aNEtd                   88.039821496    425252.04629                            ;
 qMNTt                   126.35360656    172876.61349                            ;
 s4pR                    78.094799656    561037.23144                            ;
 40ltp                   103.83498158    576263.39616                            ;
 x7ROI                   105.89015717    637914.40723                            ;
 FpDlM                   116.69596354    227273.21085                            ;
 BpPli                   74.874294356    689351.03377                            ;
 95APp                   113.31142576    354452.61502                            ;
 sis7k                   95.525517091    327978.61405                            ;
 cNWe                    111.51331968    694246.07534                            ;
 Mnhz6                   111.66398462    692842.55966                            ;
 FSrJ                    73.667548777    629822.75676                            ;
 NzLx6                    98.45068917    556721.81004                            ;
 cmMyM                   83.368815402    667108.65332                            ;
 ig86r                   78.519468736    279243.54826                            ;
 7aBjk                   129.13355216    298010.36562                            ;
 Xb0hn                   79.385298394     752707.9341                            ;
 Onjn                    99.152034526    631228.22809                            ;
 KpKYB                   81.989926458    597371.97183                            ;
 eZg2m                   115.99181928    168790.50573                            ;
 eDhqL                   118.31984604    386102.02176                            ;
 ItcMs                   123.21499097    612523.81763                            ;
 GtPXQ                   77.871253548    687503.39627                            ;
 N8mgK                    80.95558855    724480.72842                            ;
 iaTM                    67.472003068    638520.71511                            ;
 6yMIr                    130.4767751    322789.61439                            ;
 74fS1                   118.30663201    769976.36621                            ;
 ukxB                    90.037973085    392790.12124                            ;
 9uhVM                   89.703893553    419529.31894                            ;
 95fXK                   68.408154672    557673.31367                            ;
 twlD                    81.688834597    749919.49292                            ;
 OiGe7                   92.200414938    274461.43283                            ;
 KRrWZ                   118.68364851    493530.73912                            ;
 cgcYl                   115.23451231    469833.08846                            ;
 WCmjw                   101.70475158    229414.84644                            ;
 mhd4                    91.448354361    389682.01393                            ;
 uGZMo                   120.75393305    603556.86496                            ;
 zwnyq                   94.358742056    231365.31974                            ;
 CATFD                   90.650904356    531431.77947                            ;
 kQOHZ                   90.159113836    448677.56643                            ;
 eDhv2                   86.836952087    651046.64729                            ;
 3FmF                     102.1756012    332354.55349                            ;
 Xb0HU                   85.318383687    472466.86991                            ;
 MiRsw                   126.93709586    606032.47741                            ;
 xntpk                   127.52305072    262961.17965                            ;
 v2NQ3                   73.318629191    447815.13562                            ;
 NzVWu                   113.62853309      255599.985                            ;
 ITbu                    78.342647692    417805.40773                            ;
 kUkEJ                   102.44526063    190801.48497                            ;
 IulAZ                   127.33760303     300203.2357                            ;
 BpEMT                   74.340497724    250896.49739                            ;
 5NFr                    100.36830416    491780.94488                            ;
 5mZl                    85.909342003    702877.44736                            ;
 O9jiu                   123.03599273    454652.05957                            ;
 twoM                    84.456329918    296271.60738                            ;
 mTPjV                   90.729188467    264642.83368                            ;
 sMpxW                   90.432447376     204810.0389                            ;
 40lJw                   124.20202078    739839.95927                            ;
 vo3JC                   73.337320856    197247.15673                            ;
 y2at                    72.273103806    273643.33358                            ;
 O9RYG                   106.89408794    501486.13877                            ;
 jZwIW                   93.496995252    484961.42029                            ;
 40jUu                   98.575928413    210380.82071                            ;
 cmF7Z                   107.47754584    176933.20738                            ;
 40e7h                   121.95859954    540425.47185                            ;
 FCIJp                   115.73308362     510273.4103                            ;
 0z16F                   79.739948411    451095.15228                            ;
 lLWP                    70.536992025      389880.554                            ;
 oIGM                    119.78692014    470581.72163                            ;
 cneQ5                   89.655239984    769137.08386                            ;
 o4WS5                   109.40311241    450741.61566                            ;
 s5Fwa                    129.8526219    225697.47037                            ;
 sM6PB                   123.20335167    633625.43275                            ;
 cn2AL                   66.271054742    521091.60046                            ;
 LOprQ                   103.86516418    491713.96551                            ;
 ZPXVe                   104.28359018    592208.39287                            ;
 5mve                    107.06357779    210500.17647                            ;
 90zeL                   129.44106672    602967.68561                            ;
 b6gYr                   122.51385621     323226.8934                            ;
 5Iy9F                   110.21323861    516869.74079                            ;
 ZMRO                    89.094708661    243190.89461                            ;
 Cl8Zg                   81.792701796    773609.06527                            ;
 Bbwif                   99.862210903    419484.74151                            ;
 O9Si3                   75.252089857    785262.97024                            ;
 4gdMp                   113.55292523    696929.71296                            ;
 UXcNy                   84.539262344      653851.084                            ;
 x0hLd                   99.892506312    282443.02923                            ;
 D2DMa                    90.48022151    460201.25006                            ;
 906Hp                   97.655845357    776529.64774                            ;
 40l7r                   102.72923027    421652.85027                            ;
 1Fiw                     73.61527967    241929.60909                            ;
 dfAM                    130.17600243    463374.69616                            ;
 RvY0                    114.13422017    430566.72573                            ;
 fZopf                   81.103266675    536039.32591                            ;
 Xbn37                   129.13518748    717192.60149                            ;
 HqOOS                   112.01006108    677103.46561                            ;
 OnA9                    66.492492855    734040.57635                            ;
 dJ8J                    83.549024336    393293.64357                            ;
 O9CUk                   103.95908212    688798.22507                            ;
 JlINz                   102.84052828    581003.73408                            ;
 MnVZC                   77.021468903    200778.25155                            ;
 TkoCQ                   105.75425371    323658.27623                            ;
 gY3z                    113.33287523    390458.27279                            ;
 igBFi                   65.988942995    332258.33788                            ;
 U6Yzp                   127.98071765    555371.77351                            ;
 0avnA                   104.65213449    170857.60851                            ;
 Tw64k                   120.03406869    293284.50676                            ;
 U60Uo                   68.139618404    678514.59138                            ;
 IabC7                   121.73793273    466694.73186                            ;
 NheZ                    86.076951161    791619.91744                            ;
 5IHxF                   97.627892391    564118.18009                            ;
 MiSsU                   89.844510358     302218.1211                            ;
 1pamV                    88.91094598    528481.05571                            ;
 KJRK                    117.68220819    755575.67169                            ;
 5IoSE                   126.74025413     497894.6897                            ;
 JesAP                   102.23858058    312812.61025                            ;
 ZOmY1                   123.01318308    706018.59194                            ;
 MnVqu                   113.26523924    635359.94837                            ;
 SD76                     126.8533966    688896.82715                            ;
 lVuzF                    67.13443292    437941.54898                            ;
 iuPFp                   116.20133179    303222.24752                            ;
 ZPXOv                   82.251232206     267658.6674                            ;
 b6gcI                   107.24996141    533919.67206                            ;
 AH3bL                   70.542715036    334701.49372                            ;
 jZRtX                    69.93764618    418990.02284                            ;
 vVqWL                     65.8936931    391224.25094                            ;
 yjrx6                   111.47839873    495714.65347                            ;
 9arW                    81.902889282    429544.06247                            ;
 bfoB                     106.6727836    229575.44393                            ;
 dWIzG                   87.125848482    603568.42686                            ;
 CAzLm                   67.217592681    389277.61024                            ;
 aNxtQ                   84.546719837    706483.16412                            ;
 voyAg                   123.23993403    531480.16619                            ;
 cmXCA                   101.28269186    695084.42886                            ;
 95JNo                    115.1499067    599308.47327                            ;
 q2XqX                   111.61859887    449759.28128                            ;
 4NKSy                   111.38356406    731997.37863                            ;
 95VlN                   123.63880523    509523.28924                            ;
 x7JOa                   86.250633655    654304.88333                            ;
 t3L6n                   96.942349666    589641.65674                            ;
 ioJl                    122.75092673    349258.86377                            ;
 4TTX                    106.68758814    643965.00214                            ;
 MiSWb                   90.234108179    374371.73628                            ;
 eDraz                   78.649882811    328571.14649                            ;
 voafe                   69.205897026    527405.42316                            ;
 cnntT                    118.1736812    482106.06862                            ;
 O4b28                   117.99574648     722210.2444                            ;
 fe8iA                   102.81776081    317438.81718                            ;
 BC0W                    80.315520458    332207.84876                            ;
 Rfzdq                    78.24062271     536584.4303                            ;
 NzjLR                   91.316203384    355610.62169                            ;
 95J39                   123.74887164     739129.4661                            ;
 1fNC8                   112.92168576     356108.0645                            ;
 kFykj                   83.746129597    375670.55663                            ;
 WH5U8                   74.678538772    340009.19933                            ;
 tr1MM                   97.873246898     325800.1392                            ;
 b6gLo                   106.84742271    365501.94293                            ;
 uGvMO                   72.611263176    264231.78692                            ;
 4NjOr                   73.702867207    264310.80968                            ;
 s4fe                    124.97045809    366532.33122                            ;
 Ocmhe                   101.67327151    293807.67701                            ;
 SWvW                    67.361430766    192659.59102                            ;
 HlrJq                   119.66024992    369503.43182                            ;
 7aB73                   84.102882575    570475.18847                            ;
 6SmFh                   121.35760552    426188.39702                            ;
 4NXM4                    98.06500142    293573.55841                            ;
 thA2D                   115.09715172    537169.73997                            ;
 bMq7                    95.090237701    166811.48016                            ;
 oncq                    94.503639579    480506.12202                            ;
 4Tbe                    102.09389053    395904.16727                            ;
 mT2kU                   83.443349968    189784.27701                            ;
 peXAo                   119.77076913     734022.4452                            ;
 RTch                    113.63079757    200178.49435                            ;
 JqJo                    91.902688882    763885.00614                            ;
 3YoN9                   130.72947544    784221.59325                            ;
 BK4vl                   129.60717632     540545.0183                            ;
 eJLH                    86.809006065     264909.2364                            ;
 Nz2NE                    86.20984704    648641.68332                            ;
 UKA9s                   97.031861227    198707.62505                            ;
 XClGh                   71.256572504     216872.0747                            ;
 UCqj                    122.59699198    429292.81794                            ;
 XbyZO                    128.9599287    756766.05992                            ;
 OIQKy                   107.30433775    708120.97376                            ;
 WfEzr                   127.92585005    209152.93054                            ;
 DqATW                   126.57302466    207120.14632                            ;
 SJTBd                   107.69247886    303555.77694                            ;
 WeeE                    128.79425213    603786.35002                            ;
 ITXI                    103.34600417    470121.38109                            ;
 GkFRx                   113.25952724    614401.65124                            ;
 5Gj5W                   95.981411448     406442.2744                            ;
 Rf3Ss                   123.74190425    163775.54064                            ;
 cGVch                   119.17832225    576952.26609                            ;
 sMF6T                   112.80401859    414224.93061                            ;
 dWgy6                   72.504725492    551654.62276                            ;
 cgIqG                   116.00774607    305740.78216                            ;
 uk6i                    101.02935894    616236.42361                            ;
 GYCeM                   124.25464662    445683.16729                            ;
 K1gf5                   78.682620754    306181.56808                            ;
 7K6J                    94.305940611    224275.10269                            ;
 aNE73                   109.93494752    541418.10719                            ;
 03VL                     130.9437995    577232.79582                            ;
 3Y8iw                   125.64604181     306702.8102                            ;
 0aD4R                   67.328209608    753801.63623                            ;
 gkW5o                   108.61942478     158743.2425                            ;
 y2X1                    79.211711764    459740.76763                            ;
 xgB7                    113.71600661    577116.45316                            ;
 LOp0n                   80.582288648    703113.22131                            ;
 ZPK7P                   86.863388598    257937.93449                            ;
 cty2                     114.7909719      420642.044                            ;
 x7SaF                     80.7046682     575233.1474                            ;
 Xb0eF                    105.7380634    610716.09515                            ;
 q2P20                    89.35127813    389131.72386                            ;
 ZPKMv                   101.79885255    219043.36346                            ;
 b6n3r                   105.03410067    301577.32992                            ;
 5mwY                    92.341803062    495758.75369                            ;
 707Vv                   124.59910022    346395.38792                            ;
 aNqe9                   113.01055315     747062.3004                            ;
 zY6sb                   120.96694345    471746.97181                            ;
 AZbr                    83.330525452    344005.96108                            ;
 ZMSo                    106.90500512    226819.86137                            ;
 Oitfo                   70.700061652    449871.63979                            ;
 jZ62g                   110.58516255    338145.63042                            ;
 MiLys                   79.649532196    325621.17697                            ;
 icHxG                   67.897632714     305346.2008                            ;
 eLi6                    112.15054191    328956.36372                            ;
 XNcf                    123.46514651    615524.84748                            ;
 akBDb                   97.015409461    666887.96305                            ;
 O5OZv                   70.425851777    313736.41622                            ;
 MiS83                   76.914732586    455865.31229                            ;
 JykK3                    127.7571251    230586.05097                            ;
 XbuEW                   102.06991915    246036.48574                            ;
 x02Tr                   121.76648002    586511.77761                            ;
 igHjc                    105.3627077    763365.89629                            ;
 tYNdD                   104.20417471     321658.4949                            ;
 xnZx7                   67.426860504    461715.69645                            ;
 fe8uD                   120.14871727    461822.38238                            ;
 WHOxx                   101.46125051    632942.41752                            ;
 Fd5NI                   84.032852195    591630.83208                            ;
 95fh4                   71.278871205    253310.49341                            ;
 mQRAI                   85.057994981    275055.17484                            ;
 peWXf                   129.40209287     531858.2176                            ;
 95AFd                   91.658748853    691141.92975                            ;
 MiRci                   95.697905891    164157.56397                            ;
 ZxOT                    102.51837318     264317.8692                            ;
 MiRa0                   72.951888981    202715.88969                            ;
 t3LND                   110.45957366    201030.70923                            ;
 LOWEP                   96.093330803    707635.83019                            ;
 jLue1                   111.04340102     603729.2136                            ;
 5IlmR                   113.65747038    596879.20694                            ;
 cnezM                   119.44540782    712274.35734                            ;
 3U6Cq                    105.1950818    437204.81383                            ;
 AHkZa                   122.06190017     253612.5084                            ;
 yjjKf                   93.147181229    182286.76033                            ;
 AyL7q                   101.58878655    776841.33945                            ;
 icq4g                   92.667673965    730098.68187                            ;
 IujGY                   116.44583131    320463.35502                            ;
 oxChf                   119.45410866    584847.43025                            ;
 ITRz                     67.62224388    481880.83901                            ;
 x7RyM                     116.531144    337668.13551                            ;
 GnHk                    65.797305003     274391.8223                            ;
 lvhyW                   121.16903586    185904.39537                            ;
 lvhRX                   126.63462536    506417.89362                            ;
 x7Rrb                   128.42069228    400037.80651                            ;
 cGYvO                   127.04367539    454085.07202                            ;
 jZZox                   105.09519801    490219.63224                            ;
 ploE                     99.00441717    215858.50158                            ;
 SyCxj                    102.9924768    551941.58356                            ;
 M7gFU                   87.672564518    347466.19399                            ;
 sMpLX                    67.38650246    254102.97436                            ;
 9uM2H                   118.73759498    494436.20503                            ;
 ePcE8                   76.113193048    701447.50335                            ;
 e2HSK                   121.34383189    664500.11163                            ;
 95fTz                    85.31299616    485994.29702                            ;
 aNPuh                   76.312039909    774320.57728                            ;
 zrz05                   124.04180285    401752.44414                            ;
 uGvnI                   72.755624901      721621.228                            ;
 iG1Q                    125.52257056    398283.44889                            ;
 3YOoH                    81.98770463    775585.85394                            ;