[TITLE]

[JUNCTIONS]
;ID                      Elevation       Demand Pattern                 
 Lc8Z                    79.170877984    781112.94245                            ;
 dJkA                    115.45840552    515544.81612                            ;
 FRVg                    118.35927108    659017.61481                            ;
 6exh                    74.709472403    739712.69935                            ;
 7Gen                    79.125603308    423188.46078                            ;
 zBoR                    73.140576136    471730.85116                            ;
 OnA9                     100.1483863    240994.98321                            ;
 s4Tk                    66.425877123    520626.87767                            ;
 SD76                    77.569631627    259823.90058                            ;
 KAxP                      126.552029    613667.61841                            ;
 WeeE                    121.46354917    523236.75681                            ;
 cNoq                    115.89527545    250526.33629                            ;
 HPoC                    113.06127262    161969.83792                            ;
 M0eH                    102.73445086    358446.55257                            ;
 HPnD                    78.945480126     774193.0154                            ;
 UCqj                    125.67095721    772060.25269                            ;
 7GBq                    92.896362869     371579.8661                            ;
 ZMHi                    98.200502666    597197.70238                            ;
 xgB7                    84.268201263    239812.08321                            ;
 9gKf                    69.535516095    401744.48269                            ;
 vMgk                    128.87599989    557733.19025                            ;
 XALI                    116.99157508    559750.92153                            ;
 eV0H                    100.42163333    556912.28839                            ;
 4tvS                    111.77993357    514969.06576                            ;
 AZbr                    104.26214785    734688.03867                            ;
 ukJn                    126.63497086    613017.93635                            ;
 cNWe                    85.853228574    541264.79519                            ;
 ukxB                    88.591173362    635429.68492                            ;
 ploE                     109.3376205    527860.95488                            ;
 y2wX                    110.90064891    325996.45635                            ;
 oI3c                     117.4674279     395692.0859                            ;
 ctBC                    94.814007482     769589.5885                            ;
 sI4n                    125.77546757    789599.67961                            ;
 03VL                    93.111923637    624598.82357                            ;
 iae6                    100.67362438    570088.85834                            ;
 mhd4                    112.62108516     359023.1976                            ;
 SDuf                    84.362087738    417146.94932                            ;
 0kXX                    120.82233796    682844.33812                            ;
 BCPz                    131.01871256    744391.28183                            ;
 RvY0                    128.20599544    613160.02689                            ;
 uk6i                     114.3803951    239015.63761                            ;
 3FDi                    77.763659024    570748.51435                            ;
 KAQN                    84.883628405    747462.68484                            ;
 s4Hl                    84.867261917    191652.64205                            ;
 iaTM                    104.47919861    700327.47901                            ;
 7maW                    71.856479531    165562.16925                            ;
 ITXI                     105.7527873     484646.6666                            ;
 g8oo                    71.120332864    245189.64279                            ;
 5mZl                    129.63897207    161749.08376                            ;
 AZ9P                    101.84153773    291378.38075                            ;
 TBHo                     102.9429628    160412.98825                            ;
 kXEU                     108.6561946    580080.19989                            ;
 GrYH                    124.73999192    296025.05054                            ;
 bfsU                    121.79400496    253682.20759                            ;
 9arW                    72.698389441    502119.71838                            ;
 s4pR                    73.275892937    503691.69963                            ;
 zFCz                     115.4549055    620865.44982                            ;
 xub0                    101.42459875    645563.52622                            ;
 JqhJ                    74.631565715    692980.60135                            ;
 Upa0                    110.72751567     609547.9663                            ;
 Sv56                    114.94891059    768431.79748                            ;
 ITRT                      113.596893    203027.79995                            ;
 3XlM                    66.931085848    398644.45266                            ;
 M083                    118.59079411    352528.63496                            ;
 CjOj                    67.178471843    580392.54013                            ;
 9aBS                    95.985017123    638145.36155                            ;
 tw97                    115.00573335    266800.01667                            ;
 AZQm                    65.689911669    272420.36626                            ;
 5mXo                    84.212062047    459027.33916                            ;
 Up8z                    91.858951802    706583.36656                            ;
 9gjz                    123.98761027    522691.93193                            ;
 g8ss                    116.99549323    783405.84229                            ;
 XROg                    109.43023763    627313.94898                            ;
 dfAM                    69.184507156    430792.20643                            ;
 nz14                    125.83500798    294435.71532                            ;
 y2at                    98.460000042    316323.42971                            ;
 aYUg                    75.859590624    326321.64441                            ;
 03Ls                    103.58872682     553293.5997                            ;
 iGgx                    114.16101027    769506.82394                            ;
 dJ8J                    109.62159656    443766.19113                            ;
 6eTJ                    86.123298896    352664.35865                            ;
 03RA                    113.66937778    200706.20421                            ;
 y2KW                    74.013207214    295630.79636                            ;
 cNUk                    106.84805885    780816.85901                            ;
 fEgT                    88.652517812    163769.64885                            ;
 7mQi                     81.67795597    440323.35194                            ;
 TUxt                    97.773895266    559080.32327                            ;
 H2iJ                    77.883965444    305088.06068                            ;
 UpGu                    124.45469557    679279.54644                            ;
 GQCM                    104.26454771    675136.44331                            ;
 mrSm                    86.995334717    408444.89935                            ;
 oncq                    67.545240832    352170.41723                            ;
 gYdK                    77.418949695    655055.58245                            ;
 NhHD                     96.93033703    717983.05733                            ;
 4tBT                    84.685567594    356284.24125                            ;
 M0ly                    130.04372981    368825.72068                            ;
 5mVQ                    99.894224841    689624.38008                            ;
 Nhyv                    101.42469977    242288.22896                            ;
 JqJo                    88.764445705    712366.52475                            ;
 SDiW                    113.17783322    567919.20886                            ;
 FSrJ                    114.89162124    595332.33581                            ;
 gYNm                    85.401313414    239971.86546                            ;
 4Tbe                    103.53674467    234402.89792                            ;
 bfoB                     106.3755033    306264.61701                            ;
 5m67                    119.75865871    412199.01199                            ;
 TUTb                    81.145537956    414456.07492                            ;
 5mwY                     120.6566574    419445.39845                            ;
 4TTX                    69.846365525     187943.9116                            ;
 4tD9                    115.87143664    494931.23619                            ;
 Lckv                    75.642734035    390762.34521                            ;
 y2gN                    107.04262679    633421.76177                            ;
 6e8e                    103.71691199    446263.30502                            ;
 gY3z                    77.967275683    510926.69823                            ;
 kXy3                    89.023429881    705879.75074                            ;
 kKCg                     112.2240305    229043.05462                            ;
 xgz2                    97.517966675    509820.24758                            ;
 BC0W                    83.653767153     537325.9086                            ;
 O0IB                    125.80756701    303969.14196                            ;
 AZu9                     87.52662793    248637.52137                            ;
 ZxVG                    86.578622967    704217.11467                            ;
 jsbB                    125.08423558    697883.13739                            ;
 kXW0                    104.71098441    257482.00171                            ;
 9gws                    86.449327264    343572.66459                            ;
 4Tdy                    77.547787695    493125.22669                            ;
 03qE                    103.83536502    247505.99763                            ;
 7GzO                    86.379736514    595611.61382                            ;
 5mve                    102.65629698    214094.14376                            ;
 Nhxc                    85.356742484    203474.43495                            ;
 xuNE                    66.763323033    570523.26671                            ;
 KJRK                      108.607444    385919.58432                            ;
 JqzW                    86.865082142    590296.38645                            ;
 ITRz                     94.04034004    534635.23407                            ;
 ITK0                    131.09188669    734254.61999                            ;
 OnD0                     117.6224796    749438.63619                            ;
 OnGO                    67.759779545    369439.22274                            ;
 y25n                     87.85156284    511204.06094                            ;
 mrAt                    86.416125425    209050.09207                            ;
 sI54                    77.460315438    452483.18145                            ;
 0k33                    77.945890467    312234.52147                            ;
 oIGM                    67.604402293     497661.9486                            ;
 ITYM                    128.34605829    477282.14825                            ;
 ZMBj                    75.372068878     663173.6684                            ;
 AqvR                    88.607616378    235112.64211                            ;
 5NFr                    79.420353971     702588.7763                            ;
 zBbm                    126.57196827    687254.90135                            ;
 M0JI                    103.69981495     242303.2975                            ;
 cNdf                    71.805249631    653389.79861                            ;
 bfzD                    85.150576511    584975.59742                            ;
 03Kd                    82.783377691    193386.28953                            ;
 4t6v                      69.3210211    479974.36786                            ;
 DOEZ                     66.76043119    445726.52947                            ;
 twlD                    87.674748945     205018.4566                            ;
 NheZ                     130.6922821    577591.68088                            ;
 LcJu                    88.405377636    198904.95066                            ;
 s4fe                    116.91776559    449454.34251                            ;
 ZMSo                    96.088679253    566177.87254                            ;
 Do0n                     70.97573138    532096.35148                            ;
 twoM                    79.752277251     702467.3866                            ;
 lsVa                    92.380923078    321370.73397                            ;
 M0eg                    71.012817439    551122.18906                            ;
 xuNO                     108.5159678    472156.60118                            ;
 RvxD                     68.01621129    333821.79847                            ;
 eVTq                    125.82635909    604018.81389                            ;
 Onjn                    92.652826926    192570.17141                            ;
 M0hq                     127.2185597     637343.6263                            ;
 eLi6                    82.283608233    496480.84274                            ;
 g8bb                    107.52819723    481364.52234                            ;
 ITbg                     114.0110272    369498.27144                            ;
 FSFl                    104.78375577    276777.58477                            ;
 GQVT                    83.674029498    246793.19494                            ;
 ukE3                    124.50538538    571646.31034                            ;
 7GHr                    87.120073338    485535.06626                            ;
 NwwX                    83.361230553    647191.49006                            ;
 xuwi                    113.51748244    555520.84259                            ;
 ukLQ                    128.48281374    384423.23575                            ;
 twi5                    87.032021677    607160.51536                            ;
 ITYx                    75.470988997    718233.72946                            ;
 ITbu                    83.974077922    500426.89568                            ;
 ZxOT                    96.936562272    446553.78713                            ;
 9gUo                    126.97947317    744520.21026                            ;
 5mZz                     86.64153023    271214.26258                            ;
 JEEI                    112.85722746    586694.90449                            ;
 eVM1                    67.331592841    201251.59149                            ;
 s4UX                    93.801145985     221916.1376                            ;
 tUwU                    114.63656709    229667.20015                            ;
 mrlY                    86.524380446    452517.69478                            ;
 y2mz                    116.24452505    339113.99054                            ;
 JEIQ                    72.141683968    663686.17338                            ;
 vONh                     95.10112547    329783.18029                            ;
 nzbc                    91.942429252    189973.66132                            ;
 ctNI                    98.749049282    425971.72072                            ;
 3FxN                     88.38170493    496014.19026                            ;
 kXek                    98.367733365    211730.63865                            ;
 TBBf                    69.753239698    445429.15595                            ;
 BCGS                    118.67846421    713721.33046                            ;
 eVuy                    105.88296147    234943.26493                            ;
 9g15                    92.214537084    592056.18752                            ;
 KAEy                    114.16661548    564407.15801                            ;
 y2X1                    92.074617976    529157.90238                            ;
 Do1b                    76.892332748    226978.44903                            ;
 ZMRO                    87.888379921    249250.09471                            ;
 GQ9r                     73.24055556    658624.00851                            ;
 Nhs9                    81.245018681    438224.97291                            ;
 3XXH                    128.12046159     458452.5694                            ;
 nzAG                    68.471602419    540743.37914                            ;
 Cjkn                    109.68630849    241490.78436                            ;
 fPPo                    94.361042668    427004.46948                            ;
 xuU7                     80.10328905    587188.55698                            ;
 lLWP                    81.653814164     438597.8221                            ;
 n31c                    116.06166595     559804.8479                            ;
 q99I                     113.1029984    289436.33322                            ;
 DoW1                     74.18460777    394404.73781                            ;

[RESERVOIRS]
;ID                                   Head                  Pattern

[TANKS]
;ID                              Elevation           Init Level            Min Level            Max Level             Diameter           Min Volume Volume Curve         Overflow            

[PIPES]
;ID                   Node1                Node2                              Length             Diameter            Roughness           Minor Loss               Status
 7apx                 JqzW                 AZ9P                    7.4814632546    17716.535433             130               0                 Open   ;
 9uyt                 Do1b                 6eTJ                    242.79963911    17716.535433             130               0                 Open   ;
 HEbG                 Up8z                 ukLQ                    28.978838583    17716.535433             130               0                 Open   ;
 a8vW                 OnA9                 GQVT                    115.77198163    17716.535433             130               0                 Open   ;
 dAGW                 BC0W                 OnGO                     16.00902231    17716.535433             130               0                 Open   ;
 Itdg                 BCPz                 OnGO                    57.550098425    17716.535433             130               0                 Open   ;
 BpP3                 y2at                 NhHD                    799.03267717    23622.047244             140               0                 Open   ;
 5GKM                 cNWe                 9gKf                    154.92798556    17716.535433             150               0                 Open   ;
 plSb                 gY3z                 nzAG                     1009.553248    23622.047244             140               0                 Open   ;
 a8PS                 5mwY                 4tBT                    10.218143045    17992.125984             120               0                 Open   ;
 ia4s                 7maW                 O0IB                     3.711843832     7874.015748             130               0                 Open   ;
 NhCf                 7maW                 n31c                    2.7887139108     7874.015748             130               0                 Open   ;
 KA1w                 y2at                 oncq                    978.00344488    23622.047244             140               0                 Open   ;
 ukNf                 0k33                 Up8z                    1097.0467192    17716.535433             150               0                 Open   ;
 iawn                 JEIQ                 FRVg                    2.7887139108     3937.007874             130               0                 Open   ;
 s4gm                 M0eg                 kKCg                    3.5487860892    11968.503937             120               0                 Open   ;
 UplH                 XROg                 Nhyv                    4.2776902887    17992.125984             120               0                 Open   ;
 o4Qu                 y2gN                 vONh                    3.4875656168    17716.535433             150               0                 Open   ;
 bJNl                 twi5                 s4Hl                    227.43116798    23622.047244             130               0                 Open   ;
 plLZ                 g8oo                 cNoq                    5.2901902887    17716.535433             140               0                 Open   ;
 dJps                 5m67                 iGgx                    54.351312336     3937.007874             130               0                 Open   ;
 cNhz                 WeeE                 vMgk                    2.9199475066     5905.511811             130               0                 Open   ;
 6ymR                 RvY0                 nz14                     3.950656168    17992.125984             130               0                 Open   ;
 ClzI                 ukLQ                 HPoC                    4.4624343832    17992.125984             120               0                 Open   ;
 lVIU                 ITXI                 ITK0                    1492.8870735    23622.047244             140               0                 Open   ;
 g8ww                 ukLQ                 ITYx                    4.1499671916    17992.125984             120               0                 Open   ;
 U6ZD                 ITbu                 Lckv                    6.0495734908    11811.023622             130               0                 Open   ;
 s43Y                 iaTM                 5mZl                     3.711843832    17716.535433             140               0                 Open   ;
 L5YE                 9gKf                 XROg                    6.3702427822    17716.535433             150               0                 Open   ;
 4tKk                 9aBS                 3XlM                    4.2015091864    17716.535433             150               0                 Open   ;
 fqXp                 ZMHi                 DoW1                    5.7391404199    17716.535433             140               0                 Open   ;
 SjIA                 9g15                 mrlY                    2524.7371063    23622.047244             140               0                 Open   ;
 zUfh                 kXek                 mrAt                     2.001312336    17992.125984             130               0                 Open   ;
 nTqh                 03VL                 y2KW                    2.3622047244    17716.535433             150               0                 Open   ;
 AZf1                 HPnD                 LcJu                    86.605872703    11811.023622             130               0                 Open   ;
 4NAV                 ZMBj                 Lc8Z                    5.5870734908    3976.3779528             120               0                 Open   ;
 GQXE                 AZQm                 zFCz                   0.42650918635    17992.125984             130               0                 Open   ;
 y2Oi                 eVM1                 mhd4                    3.7407480315    11968.503937             120               0                 Open   ;
 7aB0                 nz14                 eVuy                    0.2624671916    17992.125984             130               0                 Open   ;
 4N1D                 cNdf                 s4UX                    3.4875656168     3937.007874             130               0                 Open   ;
 xuQM                 4Tdy                 9aBS                    2431.6516076    17716.535433             150               0                 Open   ;
 7ae0                 oIGM                 M0eH                    1.6404199475    17716.535433             130               0                 Open   ;
 u3VQ                 ZMSo                 ZMRO                    513.24852362    23622.047244             140               0                 Open   ;
 bJOX                 9gKf                 4t6v                    25.039927822    17716.535433             130               0                 Open   ;
 cNQt                 uk6i                 SD76                    3.4875656168    17716.535433             150               0                 Open   ;
 0zXd                 RvxD                 CjOj                    1.0498687664    17716.535433             140               0                 Open   ;
 AZov                 kXek                 gYdK                     11.37644357    3976.3779528             120               0                 Open   ;
 5GBh                 mrSm                 xuwi                    4.0047900262    17716.535433             140               0                 Open   ;
 zBJQ                 4Tbe                 JEIQ                    947.43549869    17716.535433             150               0                 Open   ;
 03db                 ctBC                 jsbB                    2.9527559055    23622.047244             120               0                 Open   ;
 o4ER                 TUTb                 JqhJ                    6.8897637795    17992.125984             120               0                 Open   ;
 SjkP                 GQCM                 eV0H                     1.345144357     7874.015748             130               0                 Open   ;
 kFvh                 ITRT                 ITRz                    407.69251969    17716.535433             140               0                 Open   ;
 9ueT                 UpGu                 dJkA                    6.2422244094    17992.125984             120               0                 Open   ;
 4Nxq                 FSFl                 UpGu                    4.6048884514    17992.125984             120               0                 Open   ;
 e2Qo                 3FxN                 JqzW                     145.7464895    17716.535433             130               0                 Open   ;
 OIRw                 3FxN                 cNUk                     2.001312336    3149.6062992             140               0                 Open   ;
 NhXW                 eLi6                 TUxt                    6.8975721785    17992.125984             120               0                 Open   ;
 5GkT                 xuNE                 ITYM                    5.7391404199    11968.503937             120               0                 Open   ;
 bJxd                 nzAG                 eVTq                     2601.098294    17716.535433             150               0                 Open   ;
 5mrk                 ZMHi                 fEgT                    6.0228346457    17716.535433             140               0                 Open   ;
 bJgf                 eVuy                 iae6                    11.858234908    3976.3779528             120               0                 Open   ;
 HEKg                 AZbr                 KAQN                    41.143339895     7874.015748             130               0                 Open   ;
 WHV7                 M083                 Do0n                    14.927755906    3976.3779528             120               0                 Open   ;
 Cld8                 JqJo                 FSFl                    72.090026247    17992.125984             120               0                 Open   ;
 o48n                 GQCM                 7GBq                    3.4875656168     7874.015748             130               0                 Open   ;
 nTj8                 SD76                 kXek                    5.5677821522    17992.125984             130               0                 Open   ;
 1f27                 g8bb                 03Kd                    1065.2788386    23622.047244             140               0                 Open   ;
 mQCm                 M0hq                 uk6i                    867.91856955    17716.535433             150               0                 Open   ;
 Bp06                 03VL                 tw97                    3.2152230971    17716.535433             150               0                 Open   ;
 M0cd                 q99I                 WeeE                     3.950656168    17716.535433             130               0                 Open   ;
 g811                 7maW                 xuNO                    29.487992126     7874.015748             130               0                 Open   ;
 dAa1                 9gws                 mrlY                    458.52516404    23622.047244             140               0                 Open   ;
 jsuc                 JEIQ                 Sv56                     3.280839895    17716.535433             150               0                 Open   ;
 js49                 ctBC                 9arW                    1.9028871391    23622.047244             120               0                 Open   ;
 peMV                 SDiW                 nzbc                    6.5122703412    17716.535433             140               0                 Open   ;
 kFTP                 gYNm                 5mwY                    8.8278215223    17992.125984             120               0                 Open   ;