[TITLE]

[JUNCTIONS]
;ID                      Elevation       Demand Pattern                 
 kD6E                     34.38278056    48187.132745                            ;
 mfXj                    31.677534444    39234.402353                            ;
 I6QH                    31.236051828    48515.388024                            ;
 7d3J                     27.17395946    36304.280334                            ;
 xFtW                    21.666327694    32262.555886                            ;
 I6Qf                    36.848959141    17601.032726                            ;
 HgOk                     37.30676827    37269.012915                            ;
 HgcU                    34.571298414    16322.030706                            ;
 zl1s                    28.086098792    36338.675454                            ;
 UVf8                    37.516669198    21176.478411                            ;
 iKzf                    20.348118063    16204.021026                            ;
 xFtJ                    33.414612931    46056.353186                            ;
 OUNz                     22.22634216    43700.315043                            ;
 aAB2                    27.627613749     24922.38377                            ;
 OUmJ                    32.330110601    28374.761353                            ;
 4WrV                    20.438075652    37668.327807                            ;
 dMDZ                    25.565591789    15919.028048                            ;
 iKzZ                    27.058139984    42457.615918                            ;
 owGJ                    24.050819513    18908.298351                            ;
 RIVr                     31.65291029    38451.836805                            ;
 OUtH                    23.121787633    19282.737935                            ;
 fuOl                    29.025306626    12328.558249                            ;
 CcPQ                    39.200941001    33115.295793                            ;
 4WYP                    37.044510994    45925.417449                            ;
 AnLF                    35.663975252    14490.586588                            ;
 c1Ym                    39.788535336    47770.197941                            ;
 19ZA                    34.065812354    45033.609475                            ;
 7dkh                    25.612791128    35683.607529                            ;
 KOlk                    38.311368878    26797.309995                            ;
 c1rO                    25.126489821    32808.721199                            ;
 c18L                    38.920133874     12500.42949                            ;
 Fsey                    23.682815791    25394.899545                            ;
 p5VK                    20.530623411    25356.992083                            ;
 p5EB                    28.360043136    22839.230583                            ;
 GJpA                    29.537472264    34001.207208                            ;
 Te1K                    27.051423072    46138.266106                            ;
 jNiR                    23.638244266    21707.175898                            ;
 5bko                    36.766155403    37049.170581                            ;
 4WQz                    39.435085667    31281.980616                            ;
 aA69                    36.835601755    18615.516643                            ;
 gRUn                    28.022856597    30092.317041                            ;
 MBNV                    38.684535581    38902.091022                            ;
 Dt7y                    39.738062895    34768.524828                            ;
 9XhC                    30.897319877    20764.058056                            ;
 S47T                    36.067873892    20643.801033                            ;
 0ChI                    35.316078257    48572.156609                            ;
 3j6d                    38.809679745    33701.934778                            ;
 tydN                    33.904461503    24280.309531                            ;
 4WXh                    36.565219281    28083.633456                            ;
 NHdz                    35.675323991    29740.908877                            ;
 shas                    30.260674421    38827.708421                            ;
 3jfS                    26.841594145    14055.274778                            ;
 yaxl                    32.106800842    19996.185117                            ;
 AnoK                     29.29201437    22523.799554                            ;
 0C1t                    36.571068507    32469.162922                            ;
 Zz4I                    22.500280858    47701.081343                            ;
 WiqA                     25.56405566    11056.855926                            ;
 q3IL                    34.731071091    20291.805165                            ;
 67Eo                    30.114354276    21888.459249                            ;
 FsZv                    30.804263665     44643.95386                            ;
 vTcs                    34.935832256     34307.05263                            ;
 lmii                     39.76774667    22809.991362                            ;
 XolA                    38.669892087    35997.024758                            ;
 9Xzg                    33.710003021    10825.795134                            ;
 J0oL                    32.394727724    22350.294087                            ;
 4WBQ                    35.417057601    28428.079448                            ;
 TeS6                    34.982555167    32834.170777                            ;
 Dt0Z                    34.374312149    15259.296956                            ;
 GJX1                    38.964226356    19283.201317                            ;
 7dhj                    35.328943424    25219.113831                            ;
 WiEJ                    31.807080926    44306.670765                            ;
 lmrr                    25.691896507    40821.350867                            ;
 c1QN                     22.18765867    37190.170486                            ;
 19qJ                     20.85824234    38557.857586                            ;
 vT4o                    39.448421981    16875.530399                            ;
 AnOd                    30.655340086    21141.184391                            ;
 gRbm                    37.175685286    27137.158633                            ;
 9X3a                    29.056577903    12955.874022                            ;
 XojJ                    37.673700763    27493.403861                            ;
 TeWd                    35.807806558     48075.82763                            ;
 4Wr3                    25.842892714    47217.388059                            ;
 3jpb                    32.124037265    30556.530851                            ;
 J0Os                    20.767154163    46831.900995                            ;
 iKwZ                    37.800369041    26642.021335                            ;
 XoPj                    20.528511547    44547.729462                            ;
 jNGZ                    23.171308909    48522.416202                            ;
 shNM                    24.548492826    33658.014632                            ;
 Fsle                    24.092419798    29144.463961                            ;
 lm77                    22.601445177    39574.791853                            ;
 9X3d                    21.066163928    38515.119982                            ;
 uSBp                    23.552548717    39220.900858                            ;
 xFkS                    35.148675282    39626.813712                            ;
 ZzIn                    39.410414041    48679.590086                            ;
 dMvq                    21.097079727      25231.1727                            ;
 lm55                    28.795845584    23975.059432                            ;
 5bXR                    32.250029334    20327.209921                            ;
 0CXa                    30.840165721    47995.619368                            ;
 OUt3                    25.725663941    18323.172594                            ;
 GJKW                    38.780965522    13876.980544                            ;
 7d8w                      32.8946166    41308.367875                            ;
 zlfc                    26.353560332    43514.088335                            ;
 67PO                    27.041994307    15885.450678                            ;
 BLeE                    32.783300191    16127.266016                            ;
 fu9v                    33.555843624    14964.072335                            ;
 MBTh                    34.135691434    31683.672737                            ;
 MBzw                    33.196480279    24714.002658                            ;
 5bYd                    27.560480605    38204.819142                            ;
 OUTk                    22.016878832    12745.257002                            ;
 LrGr                    26.655713362    32864.562944                            ;
 bxZ9                    26.389791654    49318.309965                            ;
 iKUO                    31.242192381     16016.79298                            ;
 OUze                    21.714160857    44400.714118                            ;
 iKQj                    35.584816864    41275.453037                            ;
 c1F8                    31.790055589     48068.42124                            ;
 npBf                    33.466605261    11720.361821                            ;
 S4L0                    21.013317854    44483.605825                            ;
 npwA                    25.476303106    47147.701216                            ;
 eGiz                      34.6148258    36779.397988                            ;
 kDC2                    28.854512965    20831.811392                            ;
 q3mi                    20.686380025     30091.01925                            ;
 WiLe                    25.405375591    42105.376172                            ;
 CcLw                    27.997925711    44931.030584                            ;
 mfdv                     25.11592277    25542.266453                            ;
 9X8m                    39.300626394     14029.91573                            ;
 xFzp                    23.610827061    30783.423821                            ;
 NHW8                    22.515036248    45440.847973                            ;
 vTG5                    36.542225884    25764.226483                            ;
 tyJh                    27.252216486    47454.758661                            ;
 I6hy                    30.509992532     27609.77466                            ;
 I6he                    39.626011386    16373.807186                            ;
 HgxY                    25.751327704    29070.822656                            ;
 7d8H                    20.771520264    40417.174367                            ;
 c1wx                    20.907430044    35576.399479                            ;
 NHCr                    32.004803633    14984.548292                            ;
 jN5J                    33.795335702    34275.429835                            ;
 zl6O                    33.855806544    44372.684677                            ;
 iKky                    24.234005256    18700.240135                            ;
 4WhL                    29.160566953    10594.381114                            ;
 bx2c                    31.415216736     46440.92686                            ;
 c1rt                    27.119094313    35923.258949                            ;
 xFzH                    31.557350781    31378.804122                            ;
 aAXL                    30.592147925     25081.92742                            ;
 xFYj                    22.599660042    40408.231228                            ;
 owNH                    30.939794288    48552.578028                            ;
 iKwo                    32.078813361    33388.013817                            ;
 BLZs                     38.60849763    35543.067656                            ;
 RIsw                    34.158840242    38418.943999                            ;
 CcVh                    38.092757441    45082.105014                            ;
 Zzga                    39.466615857    37628.304245                            ;
 ya0V                    38.401647719    39524.299929                            ;
 yaiD                    38.011990297     40221.32695                            ;
 iKkE                    32.778726899    43116.860033                            ;
 I6Fv                     21.27504289    29290.873709                            ;
 I6Kq                    38.081154881    21255.195152                            ;
 KODY                     35.73387908    31373.842457                            ;
 c1Qo                    31.227428225     27447.02037                            ;
 p52X                    31.969881739    14952.869326                            ;
 sh8c                    22.615563543    35642.409692                            ;
 eGc8                    28.504759456    38994.508887                            ;
 I6Xv                    29.942481126    48454.303269                            ;
 5bYM                    23.977295528    20572.787675                            ;
 UVyQ                     21.48812664    30992.636089                            ;
 OUkQ                    37.874201119    37335.361947                            ;
 XoEl                    29.403094301    17774.969111                            ;
 aAWx                    25.879893574    23757.115798                            ;
 MBTs                     21.43258266    39559.260745                            ;
 Dtcl                    35.653588671    29513.292954                            ;
 gRFu                    20.618892754    42640.542743                            ;
 0CU0                    28.292248891    17096.596064                            ;
 tyWz                    31.029349034    26059.815076                            ;
 7dUd                    24.160882875    10715.843498                            ;
 Te6b                    39.218140381    30236.464492                            ;
 iK8P                    37.543868136     28343.24195                            ;
 NH1k                    26.625070797    46759.932646                            ;
 gRdG                    32.204680716    36301.645664                            ;
 fuxD                    27.051229758    22564.999027                            ;
 q30o                    20.213157431    28343.927607                            ;
 tyC8                    28.637314275    12194.702745                            ;
 kDJo                    33.068272528    37913.849845                            ;
 OUkj                    39.954915356    19371.062928                            ;
 WiPf                    24.749520594    11684.514982                            ;
 19Ef                    37.150817209    31068.356594                            ;
 LrNw                    36.478925011    45597.776651                            ;
 uSXS                    39.988415281    25068.047943                            ;
 vTIO                    35.579108397    22127.882769                            ;
 npKe                     20.77243227     39720.49055                            ;
 LrzF                    23.722718538    29361.391866                            ;
 9XkG                    29.280874974    39679.828153                            ;
 npFH                     22.63527934    13490.083355                            ;
 XoDf                    37.403941181    17476.019369                            ;
 dMqP                    34.040102426    17846.481133                            ;
 iKQV                    25.983959365    49433.127369                            ;
 4Whk                    30.338900735     45860.69265                            ;
 3jC1                      21.9240099    46893.511676                            ;
 p5sb                    29.534167102    24665.571951                            ;
 tyAr                    24.858638552      18969.8693                            ;
 J0Mo                    29.508499633    24036.445681                            ;
 Fsjl                    22.022394424    47935.741808                            ;
 MBQK                    26.703955164    28583.788463                            ;
 7dwD                    23.669123446     23080.34385                            ;
 vTa7                    20.211386276    32859.393014                            ;
 zlH4                    32.045944738    46197.626746                            ;
 Zzn0                    24.662983399    22705.382073                            ;
 dMZE                    38.113649946    29761.201954                            ;
 67L9                    21.635506485    33149.800454                            ;
 p5OW                    21.918354924    40080.204563                            ;
 GJd6                    20.475282225    36393.623166                            ;
 7dYU                    39.546170942    47831.379832                            ;
 npUJ                    27.098133649    13639.169427                            ;
 672M                    27.938195708    36324.216764                            ;
 BLlP                    39.827857738    25926.808951                            ;
 3jyA                    25.453021889    16931.544186                            ;
 lmII                    38.387344952    26247.974113                            ;
 S4su                    20.236860698    32601.178295                            ;
 uSFC                    25.133310853    15042.473842                            ;
 5bQb                    26.592719988    10995.822472                            ;
 Lrmh                    30.817524831    31906.520105                            ;
 eGuw                    23.718297399    29229.949198                            ;
 kDSV                    27.408833323    48423.702384                            ;
 q3uO                    20.841646249    47005.013951                            ;
 bxqi                    29.735722276    37587.942202                            ;
 9Xkb                    32.348392683    24129.108376                            ;
 iKYl                    32.051793587    34129.966201                            ;
 eG73                    25.089472448    10394.071041                            ;
 lmgg                     21.35654674    31389.229125                            ;
 S49N                    32.765183447    10740.777901                            ;
 mfbZ                    25.109683909    12082.621636                            ;
 xF3C                    36.778719712    44189.858183                            ;
 I6we                    20.666325774    12924.376995                            ;
 Ani6                    36.303645231    38750.976129                            ;
 I6wl                      38.6386183    15388.104122                            ;
 eG5k                    35.476576874    17215.195349                            ;
 Hg9Q                    20.256062697    37965.442436                            ;
 KOPU                    31.810020515    37876.485859                            ;
 S4MG                    26.675511331     30942.75861                            ;
 uSKR                    32.454784551     20409.76535                            ;
 7dYy                    28.674750828    42833.478468                            ;
 zlpM                    36.030715741    27483.641746                            ;
 iK8e                    34.766526442    16857.441296                            ;
 9XYW                    20.857230068    47769.482417                            ;
 5bhW                     37.81908632    32172.400729                            ;
 iKhs                    24.782260226    32694.699703                            ;
 xF3y                    29.344400088    38423.558037                            ;
 aAKs                    21.625868904    26773.163919                            ;
 xFhH                    35.922131854    45378.665522                            ;
 OUTy                    37.564951426    29558.122443                            ;
 q3gM                    38.256310357    32110.395763                            ;
 gR1N                    29.943203278    48575.572106                            ;
 owty                    29.375748126    29467.204308                            ;
 fucP                     31.65510052    11561.116906                            ;
 RIoU                    24.395928255    32705.403833                            ;
 9XrT                    24.923136664    43999.530727                            ;
 I6Ul                    20.490835752    27754.985563                            ;
 xF8l                    25.180052221    46928.387638                            ;
 kDAs                    29.835150013     32599.79897                            ;
 KOvQ                    20.410874267    44885.584366                            ;
 xFQJ                    21.208268021    32596.370202                            ;
 jN4H                     32.93478465    45778.511505                            ;
 KOZr                    29.956057807    22192.848242                            ;
 jNcf                    35.023057035    23954.056578                            ;
 5bQx                    30.208817769    18939.962828                            ;
 ow3j                    28.839473047    36312.678606                            ;
 UVer                    30.746778586    25112.810455                            ;
 9XYN                     21.91331729    33832.627781                            ;
 MBzo                    34.075947777    15722.535847                            ;
 Dt4j                    33.891752353    41004.392602                            ;
 OUrq                    24.103541279    10992.315956                            ;
 gRXg                     22.70855792    44064.457824                            ;
 7dhX                    24.217569294    14382.378145                            ;
 7drF                    26.190696285    19677.138396                            ;
 0CFg                    29.747987431    44484.248255                            ;
 KOVF                    36.920711868    23962.665821                            ;
 ty63                    26.241455529    25381.850504                            ;
 aAdo                    38.793997196    12318.487605                            ;
 Xo2D                     24.50756647    47296.122648                            ;
 shtx                    39.618700532    28896.563038                            ;
 ya7v                    23.077054964    21861.204972                            ;
 xFwq                    27.831654408    17828.259685                            ;
 ya5Z                    30.915629385    12906.523114                            ;
 p5M6                    32.046151493    47737.672472                            ;
 Wi2H                    24.686414215    38703.058774                            ;
 19PH                    20.390945502    10703.173918                            ;
 iKhv                    29.224035942    27500.804389                            ;
 J05i                    23.648051175    25850.672206                            ;
 typk                    28.475795445     20735.50634                            ;
 vTnM                    24.686803911    49063.388931                            ;
 c1hT                    29.103525782      11872.8678                            ;
 BLPM                    29.209905495    29506.919027                            ;
 ZzmN                    36.056439372    11831.267192                            ;
 FsEq                    20.947482864    34608.272454                            ;
 c1XY                    26.762081389     44889.73337                            ;
 XovH                    26.155595954    44334.477174                            ;
 4Ww8                    36.469751065    25930.667883                            ;
 Zzug                     37.58871659    37473.524274                            ;
 3jSW                    26.881854513    12508.527499                            ;
 HgIF                    35.166990708    40411.810372                            ;
 p5Ld                     27.21169066    40448.606849                            ;
 Tep1                    22.661979622     47151.14407                            ;
 J0xO                    32.358013469    28044.021292                            ;
 lmnn                     24.94403994    41108.232272                            ;
 4WFr                     22.71719244    21655.632148                            ;
 FsDj                    38.951240212    45080.121464                            ;
 TeRp                    23.309765568    10690.338202                            ;
 lmcc                    23.946558087    21201.725998                            ;
 3jJC                    20.167960283    19017.453596                            ;
 OU8r                    35.910580835     22808.27508                            ;
 Zz0u                     33.18420782    27319.075413                            ;
 OUz8                    26.341781652    35856.611573                            ;
 GJbp                    27.212271229    47390.494132                            ;
 aA1M                    21.737433994    12679.227753                            ;
 7dQB                    27.098595236    19519.295607                            ;
 67Vx                     21.81118189    16660.617295                            ;
 KOLX                    29.367435984    43287.311336                            ;
 BLj2                    30.742184138    12871.760556                            ;
 MB3U                    22.079377636       32719.811                            ;
 bxE7                    24.977297015    31926.536318                            ;
 q3ax                    32.797507603    10537.575181                            ;
 DtG2                    28.564149993     28504.43947                            ;
 5br1                    29.872694306    22337.369126                            ;
 kDyx                    39.475954775    21078.084581                            ;
 AncS                    20.647933112    21734.532567                            ;
 UVlh                     29.89755781    41669.260336                            ;
 9X81                    31.032992696    32182.037352                            ;
 S4og                    23.103092593    42046.251854                            ;
 LrTB                    24.460700422    28387.009615                            ;
 kDRL                    24.694380755    42112.797934                            ;
 mf1q                    26.692443428    21668.942684                            ;
 bxLI                    37.561780986    14862.797578                            ;
 I6Uj                    31.018694473     43949.66292                            ;
 Hgir                      27.2099233    49017.086396                            ;
 9XwS                    39.547681358    10990.378735                            ;
 7dQe                    34.410365076    13795.809241                            ;
 I6Bj                    33.448989711    27674.786171                            ;
 zlCx                    27.062953759    12836.670408                            ;
 xFke                    21.453051213    28554.996161                            ;
 0CWT                    32.911996925    15566.131854                            ;
 mfCV                    25.240491373    49342.243268                            ;
 67x4                    35.993339645    35823.007065                            ;
 NHSh                    21.150649569    10511.053508                            ;
 owTe                    23.898040378     31738.51348                            ;
 RIOB                    34.673236178    49010.040432                            ;
 c1U9                    39.787680396    36237.981245                            ;
 CcsU                    38.837426883    17813.285736                            ;
 4Wws                    20.637626665    23897.238246                            ;
 eGIQ                    26.945687875    11826.634687                            ;
 dMsO                    29.449079818    29200.843012                            ;
 iKY2                    21.589374984    12105.219063                            ;
 AnMb                    35.338665829    19989.022418                            ;
 uSdA                    22.042719329    44144.885551                            ;
 c1hM                     35.22533435    30544.189258                            ;
 5br9                    37.434537842    25853.848701                            ;
 iKBE                    38.165754795    27087.189379                            ;
 bxsn                     23.70771948    24640.971246                            ;
 eG4Y                    28.469042844    49408.447911                            ;
 MB3O                    25.946784446    38093.310325                            ;
 DtID                    21.975778435    12520.524368                            ;
 shY4                    37.231277938    10072.039247                            ;
 4Wdi                    27.669054761    44688.720199                            ;
 c1U3                    29.907057137    24786.889913                            ;
 c1X5                    26.494869769    16325.339102                            ;