[TITLE]

[JUNCTIONS]
;ID                      Elevation       Demand Pattern                 
 Kb                      70.025250711    276992.65254                            ;
 cn                      67.496768786    206928.89065                            ;
 pA                      96.139341807     368304.2616                            ;
 jE                      97.210058558    765271.48295                            ;
 5u                       113.5606768     553668.5091                            ;
 U1                      72.908267741    673301.46639                            ;
 MI                      77.568689385    192821.35614                            ;
 Ds                      85.632733936    452137.79911                            ;
 g8                      98.252656042    738467.65584                            ;
 0k                      80.504148563    714005.51241                            ;
 tB                      71.260899522    708707.76297                            ;
 s0                      72.640164513    429119.04669                            ;
 yo                      70.730704201    756442.45121                            ;
 NX                      70.574797738    344655.34206                            ;
 fo                      121.28053864    487723.17229                            ;
 qI                      111.39460375     650132.1522                            ;
 WE                      81.255076495    583936.56915                            ;
 1E                      74.076124263    277645.73773                            ;
 vn                      117.70144839    354343.67093                            ;
 cw                      129.79221307    448012.62243                            ;
 9Q                      131.01361974    620891.48607                            ;
 XE                       119.8081677     703560.1675                            ;
 4X                      119.05062313    220515.47394                            ;
 3H                      118.44327367    226040.40584                            ;
 Tf                      115.51480519    495534.61411                            ;
 JI                      94.942588716    552901.85211                            ;
 FL                      113.39447848    756493.24348                            ;
 lm                      119.99798645    638636.32763                            ;
 Z3                      88.968241304    769928.59112                            ;
 d9                      76.520513194    506828.91492                            ;
 OX                      69.033396684    171341.56681                            ;
 Ge                      99.936186999    373797.94504                            ;
 7p                      114.87487116    454838.45438                            ;
 60                      98.456178965    604699.66545                            ;
 Bi                      95.953374405    596788.00582                            ;
 M6                      129.95033506    207075.33417                            ;
 uj                      122.29774962    730253.44167                            ;
 5f                      124.74564849    367980.33872                            ;
 LW                      90.271062256     786206.2197                            ;
 ba                      116.90652649    423648.45859                            ;
 9f                      124.47448313    502146.85907                            ;
 Sk                      122.04135297     575317.4514                            ;
 nq                       114.0878081    222662.34181                            ;
 eF                      73.120729053     406635.7957                            ;
 k5                      123.13473382    468508.06214                            ;
 mM                      124.53047252    220867.53044                            ;
 xj                      92.253780283    385775.81372                            ;
 IV                      67.962288071    414979.22046                            ;
 IL                      89.384080292    552464.44882                            ;
 Hb                      81.974983289    288437.50879                            ;
 72                      80.816451594    309400.21955                            ;
 z0                      97.803323836    176529.87774                            ;
 iV                      92.889006562    368186.22013                            ;
 x2                      126.90686751     632798.8698                            ;
 a4                      78.404453878    690220.84122                            ;
 O2                      104.17739452    497852.74133                            ;
 o2                      94.773783881    654646.38781                            ;
 Rp                      100.32896975    740987.32637                            ;
 C6                      112.38500607    240929.75049                            ;
 4c                      121.79677379    756579.71876                            ;
 ii                      130.45399558    394310.25308                            ;
 AHf                     74.692072824    485539.51838                            ;
 K11                     121.13054575    689972.52824                            ;
 cn0                     104.51008708    291007.58019                            ;
 pRJ                     72.315804618    165605.07515                            ;
 jZP                     130.38906416    664926.55617                            ;
 5Ig                     94.961297757    791197.03291                            ;
 UXW                     83.068982585    612129.12725                            ;
 Min                     78.452972619    630735.73709                            ;
 Dqo                     128.95882724    512062.71541                            ;
 gmY                     78.739497393    472325.25757                            ;
 0a8                     90.913461868    769558.75592                            ;
 t3F                     73.916849377     381420.2689                            ;
 sMu                     121.43790132    427038.41992                            ;
 yjO                     112.26434007    254392.31256                            ;
 NzK                     119.99239356    358485.89925                            ;
 feO                     129.45314818    494371.38994                            ;
 q2n                     123.19295455    304693.50153                            ;
 WCP                     70.681853771    568899.75388                            ;
 1pP                     75.040088799    504731.86255                            ;
 vE0                     124.51247265    754147.95877                            ;
 cnU                     115.48727384    610231.72175                            ;
 95r                     76.579998067    504159.54529                            ;
 XbP                     96.479968686     247913.4929                            ;
 40K                     109.42899868    615211.68957                            ;
 3Yy                     93.064785573    182335.45405                            ;
 TkH                     107.79913355    595755.61007                            ;
 Jyn                     104.16948004    485454.05095                            ;
 Fds                     111.97709189    777270.34887                            ;
 lvN                     130.59270961    765901.85363                            ;
 ZPk                     79.756191978    743760.01198                            ;
 dWi                     70.879559721    645951.52852                            ;
 O9K                      96.33630882    331708.81175                            ;
 Gtl                     81.543252873    198424.89201                            ;
 74C                     102.36863307    718575.13009                            ;
 6Su                     116.23856811    530967.89415                            ;
 BK7                     110.00538034    218958.68547                            ;
 Mip                     76.040760795    584379.62626                            ;
 uGD                     108.45224074    631120.60247                            ;
 5IH                     111.10451771    568793.91401                            ;
 LO6                     105.87053988    573346.31075                            ;
 b6G                     104.77102654    289141.82082                            ;
 95H                     90.763796938    463803.80915                            ;
 SJ8                     84.599850944    375420.44839                            ;
 ngE                     123.94903798    667279.99748                            ;
 eDX                     86.542495691    785538.49724                            ;
 kQc                      89.83148656    510856.77857                            ;
 mTx                     79.269161698    169462.56352                            ;
 x7D                     119.99780666     638077.4816                            ;
 IuL                     90.099139848    476539.48916                            ;
 Ius                     89.442890019    215091.25703                            ;
 Hl1                      111.4707043    727973.39422                            ;
 74V                     116.41098181    243892.20518                            ;
 z8u                     66.464375115    571715.89744                            ;
 icL                      110.4236059    767716.33935                            ;
 x7V                     122.95236157    604931.72197                            ;
 aNI                     78.646190009    681975.98647                            ;
 O9V                     121.51023749    290616.35692                            ;
 oxV                     111.79635453    257768.92635                            ;
 RfC                     112.79608946    461482.34458                            ;
 CAp                     76.883900858    512664.07787                            ;
 404                     113.41958087    770252.97621                            ;
 i45                     106.60863841     353196.5175                            ;
 AyH                     95.338395095    601749.59306                            ;
 KWW                     124.64882092    708117.64453                            ;
 c0u                     109.07462088    596022.93086                            ;
 pAf                     90.698403711    558166.19205                            ;
 jq2                     111.35450067     713746.2062                            ;
 5na                     88.782641621    411054.99087                            ;
 UK6                     76.990586664    660564.30387                            ;
 M70                     94.339025719    612069.14577                            ;
 DEO                     74.089134753    598134.17304                            ;
 gNQ                     80.604849142     537170.0075                            ;
 0GY                     95.280261632    533654.30227                            ;
 tkX                     106.91897646    702566.68906                            ;
 sxg                      96.15398073    404308.19607                            ;
 yDM                     103.96079777    242164.05314                            ;
 N3d                     108.40847935     499411.9083                            ;
 flM                     108.76478405    434318.27951                            ;
 qV0                     87.698762658    728096.17042                            ;
 WS2                     75.409856503    651770.15711                            ;
 1C2                     85.908467678    185367.86254                            ;
 vPu                     90.472132407     430828.7432                            ;
 c0B                     124.78678862    653189.06347                            ;
 9ch                     131.03803499    342728.51866                            ;
 X12                     82.944203814    590008.96246                            ;
 4ud                     90.329923703    423146.55288                            ;
 3Qe                     106.65926697    192502.62786                            ;
 T8y                     103.93009425    750675.27033                            ;
 Je0                     73.720771449     493111.2783                            ;
 Fbo                     129.78075769    408235.93297                            ;
 lZt                     113.53441353    174468.64519                            ;
 Z28                      85.37798169    291868.42331                            ;
 d67                     120.72584368     408868.5149                            ;
 Oid                     128.11345129    607834.37867                            ;
 GTj                      123.3958435    316617.26978                            ;
 7IS                     91.672178999    378187.19799                            ;
 6Rg                     71.905220762     766635.4981                            ;
 Bd5                     96.901979421    265737.03151                            ;
 M7C                     68.843639267    627961.25246                            ;
 umv                     102.81205189    407290.94019                            ;
 5ny                     100.97532053    566284.94699                            ;
 LMp                     123.90954256    189536.88557                            ;
 bpm                     80.085706261     558642.8768                            ;
 9cy                     81.795098476    780186.61268                            ;
 SfY                     91.123909137    318478.29081                            ;
 naP                     81.365945209    552380.58887                            ;
 evK                     98.182236059    763702.96005                            ;
 kr4                     117.18029154    444334.48939                            ;
 mz9                     89.450897017    447477.54959                            ;
 x5v                     85.468987024    414052.95602                            ;
 Igs                      118.9077085    680306.49653                            ;
 Igo                      116.3188851     607209.7183                            ;
 HjW                     129.86871385    418822.49856                            ;
 7IL                     87.428187507    280237.39425                            ;
 zYg                     120.22439833    655492.93102                            ;
 i4s                     80.806432167    739461.79219                            ;
 x5L                     73.990207895    576531.21291                            ;
 atn                     130.51708307    650318.56518                            ;
 OiL                     99.001213608    238567.04958                            ;
 o9L                     85.341035747    212514.19164                            ;
 RHS                     87.863942769    159544.89754                            ;
 CJC                     80.229393048    754568.66989                            ;
 4gn                     119.90146074     558204.5348                            ;
 iIc                      84.51529949    783781.27233                            ;
 Aey                     65.782356976    324406.25197                            ;
 K66                     83.723800634     347827.9617                            ;
 cug                     92.680498328    321075.34508                            ;
 pJH                     73.308765748    384485.11074                            ;
 jEV                     86.033906407    651465.32222                            ;
 50G                     79.358513729    668858.72339                            ;
 Udp                     98.916407527    263882.24911                            ;
 M5u                     78.486531649    726069.76659                            ;
 DPM                     118.57858853    651671.68775                            ;
 gtr                     79.045839231    656059.00416                            ;
 0mQ                     87.997433881    625533.25148                            ;
 t8K                     96.039549092    530412.77974                            ;
 s9a                     114.64621216    492965.64747                            ;
 yvx                     97.462843502    599713.73217                            ;
 Nkb                     74.348632728    226782.94277                            ;
 fjx                     114.84544833    491451.25437                            ;
 qLu                     82.026365796    704309.10463                            ;
 WRV                     102.33207447    494286.40872                            ;
 1SV                     120.94788965    725660.59068                            ;
 v2g                     117.00425445    734450.43626                            ;
 cuF                     128.48089712    684478.40123                            ;
 94w                     80.840689966     314440.7998                            ;
 XWV                     108.33184519     613612.7086                            ;
 4gb                     81.499617504    263330.85381                            ;
 3rl                     82.537656546    545296.61833                            ;
 TYe                     66.629205534    649875.78682                            ;
 Jlu                     83.151315446    697704.14773                            ;
 F1O                      99.20816935    755919.37534                            ;
 lqT                      119.2325491     458609.8724                            ;
 ZVY                     122.52118567    613605.43683                            ;
 dp5                     99.866169935    596745.45196                            ;
 O7b                     96.842035316    669803.87063                            ;
 GzD                     72.512207439     368753.3702                            ;
 7nR                     112.15908361    564101.33053                            ;
 6Aa                       100.693075    436470.70112                            ;
 Bbc                     79.030637731    727514.65254                            ;
 M5S                     79.689693094    760116.49758                            ;
 uNZ                     85.267917243    241670.27664                            ;
 50e                     90.528843312    162716.32977                            ;
 LxC                     67.849367265    164849.69715                            ;
 bCN                     108.66611465    758794.74322                            ;
 94e                     89.452346184    475800.23909                            ;
 SHQ                     83.713698443    398298.42795                            ;
 nG2                     93.136605474    540271.64396                            ;
 eZd                      119.7419312    512357.98675                            ;
 khI                     80.362212703    382166.94994                            ;
 m3i                     106.39897605    299370.34754                            ;
 xcZ                     119.35481697    336330.36675                            ;
 Iao                     130.00221072    590323.41624                            ;
 IaO                     89.133559644    631324.76326                            ;
 HD6                      126.2250966    714536.54331                            ;
 7ns                     119.75163989    462657.51521                            ;
 zQa                      81.22845706    764657.26365                            ;
 iIo                      70.59188746    397173.65574                            ;
 xcs                     114.19463455    308358.75502                            ;
 aT0                     72.092738075    632903.01863                            ;
 O7s                     121.51963539    466975.71181                            ;
 ois                      103.2160484    285470.17565                            ;
 RyR                     76.159471274    399941.31215                            ;
 CHR                     121.90419882    696121.05338                            ;
 4a0                     124.78774218     256559.3273                            ;
 in4                     88.524535098    541065.94386                            ;
 Ale                     72.402990916    464490.45837                            ;
 Kpp                     75.109470046    235215.41033                            ;
 cga                     67.083882307    269768.77124                            ;
 pfy                     118.92992119      297212.671                            ;
 jPL                     127.75455943    709319.50092                            ;
 5um                     86.093112734    649165.07423                            ;
 UbC                     104.77446522    170767.58258                            ;
 Mcg                     69.944346279    208900.81327                            ;
 D2x                     89.806460872    618910.49152                            ;
 gTh                     120.35264101    280536.03998                            ;
 0Nr                     125.54618864    483796.48282                            ;
 tYd                     73.527313942    483305.90506                            ;
 siG                     91.703445392    188777.42214                            ;
 yZ9                     104.10013869    676276.28751                            ;
 N81                     120.42186996      371798.348                            ;
 fD9                     94.863894831    492550.81193                            ;
 qsg                     107.58592405    737054.13507                            ;
 WAL                     127.10115902    186551.05995                            ;
 1RL                     119.18915991    214316.07322                            ;
 vVa                     119.07950163     335850.8456                            ;
 cgX                     113.79181162    535966.74219                            ;
 9IU                     107.72096795    278773.66658                            ;
 X6L                      86.12080519    722782.91257                            ;
 4a1                     122.95285491    498107.29341                            ;
 3hj                     103.03321992    407850.24771                            ;
 TQl                     108.26329964    265897.38177                            ;
 Jjg                     112.65338606    504134.25248                            ;
 FWM                     69.917269048    718501.41431                            ;
 lEz                     113.53492172    237747.76001                            ;
 ZLQ                     77.324357801    458625.64825                            ;
 dCc                     126.20387004    710959.60538                            ;
 O51                     110.24942356    697870.56735                            ;
 G3v                     107.96806105    639379.57107                            ;
 70A                     106.53259421    225790.70786                            ;
 6JG                     111.85672686    202366.30601                            ;
 B14                     126.60776852    681440.55046                            ;
 McR                      70.37953398    678715.68924                            ;
 utq                      110.5750468    253724.73569                            ;
 5ul                     69.255884472    700122.10681                            ;
 L9S                     67.279477346     736384.8244                            ;
 bSt                     80.351240428     161666.0787                            ;
 9Il                     105.80945983    528398.51109                            ;
 Syr                     103.29464328    585394.50389                            ;
 nmV                     112.22060959     232413.0406                            ;
 eqb                     88.012465802    283261.90679                            ;
 kwn                     79.849453042    456833.84057                            ;
 mk7                     83.207607353    406512.39719                            ;
 x4q                      86.15536001    215185.22816                            ;
 IGO                     101.38894418    164305.71156                            ;
 IGM                     112.93364836    542723.75912                            ;
 Hvp                     130.11635828    208483.76941                            ;
 70o                     73.171306275     651554.1382                            ;
 zrG                     115.29677228    401510.79484                            ;
 inO                       82.9629451    407495.08865                            ;
 x4o                     129.48603654    231284.38249                            ;
 azu                       85.2743565      423978.958                            ;
 O5o                     82.894859198    688294.68029                            ;
 o7o                     97.691811546    444452.67146                            ;
 RlJ                     123.43533082    524975.43899                            ;
 CyA                     75.263422115    401778.51712                            ;
 4Gu                     76.583129673    363536.44303                            ;
 i0I                     75.183572262     465959.1738                            ;
 Ajl                     84.088748333    484879.99761                            ;
 KCC                     114.06143218    690994.81764                            ;
 caG                     79.601565495    686512.47001                            ;
 pHe                     110.74274619    219282.84716                            ;
 j2s                     74.836509975    547838.42758                            ;
 5gN                     110.64957326    664949.27251                            ;
 U1S                     120.26903955    253520.96798                            ;
 M4a                     122.52357617    217111.27539                            ;
 DV9                     128.80868856    682239.18609                            ;
 gzw                     110.50286978    182848.11306                            ;
 0th                     74.129505396    559694.77322                            ;
 tQb                     89.243721258    492039.01967                            ;
 s7m                     109.76450091    282804.79191                            ;
 yqi                     79.240860753    695376.70531                            ;
 NYW                     125.12659703    513663.67607                            ;
 fvi                      110.5022426    416208.21471                            ;
 qoa                     114.61123083    337901.15456                            ;
 WJs                     123.82775522    717188.39508                            ;
 1As                     113.95700972    190037.82889                            ;
 vLG                     100.52343791    649785.13398                            ;
 caK                     74.630342927    653011.14403                            ;
 9nB                     82.845280319    728357.41686                            ;
 Xps                     83.842351466    246827.17607                            ;
 4GW                     79.104818179    364278.73686                            ;
 3wD                     83.005010269    229791.48034                            ;
 Trj                     118.37991669    562797.50561                            ;
 JDa                     87.587244016    472937.63518                            ;
 F6x                     110.04340296    649795.60733                            ;
 lP3                     67.055543107    708104.40709                            ;
 Zsr                     125.44772833    709915.34715                            ;
 dS4                     130.24301992    728766.34191                            ;
 OcW                     105.52197351    497352.09809                            ;
 GkZ                     73.349438289    676758.28919                            ;
 7uJ                     111.21293766    276577.24315                            ;
 6fm                     103.66238981    554821.31143                            ;
 BWI                     77.936647346    626375.46346                            ;
 M4A                     88.008716798    520661.85731                            ;
 uTE                     96.371026374    622048.42033                            ;
 5gj                     88.753692182    183367.56113                            ;
 LiR                     81.295530827    773935.89589                            ;
 bRT                     112.87106507    169546.44778                            ;
 9nj                     77.616546706    630626.22699                            ;
 Seh                     100.32570043    636983.55247                            ;
 nNL                     72.945865987    314347.17602                            ;
 eE1                     104.31615578    706293.62435                            ;
 kU0                     123.31209629    256165.91546                            ;
 m85                      82.26416253     240235.5901                            ;
 xIE                      125.3957714    765369.64189                            ;
 ImM                     92.427053543    581824.26016                            ;
 Imx                     116.25274358    229520.07588                            ;
 HZC                     88.359076815    453497.44618                            ;