[TITLE]

[JUNCTIONS]
;ID                      Elevation       Demand Pattern                 
 Kb                      80.949856701    740460.57691                            ;
 cn                      102.56533734    160862.65633                            ;
 pA                      74.586894621    266300.42073                            ;
 5u                      127.85880557    652227.60958                            ;
 U1                      111.40233365    289040.80744                            ;
 MI                       90.05700244    610320.03274                            ;
 g8                      114.63169967    175821.65113                            ;
 0k                      107.33365328    515804.32294                            ;
 yo                      113.36426623     351748.7083                            ;
 NX                      104.96620978    623360.49038                            ;
 fo                      102.61235718    703090.56503                            ;
 vn                      95.392779064     469036.9838                            ;
 4X                      90.228812469    160123.93343                            ;
 3H                      98.426487376    627727.25997                            ;
 FL                      65.622655167    780701.63197                            ;
 lm                      121.38603029    584610.18525                            ;
 Z3                      87.275440865    357788.70706                            ;
 d9                      80.553211733    396247.29315                            ;
 60                      81.224895136    587853.49296                            ;
 Bi                      102.74350085    160623.92756                            ;
 M6                      128.41871992    574953.28388                            ;
 5f                      106.18668349    207805.43586                            ;
 LW                      100.61982316    192716.87003                            ;
 ba                      109.13737955     676601.6211                            ;
 9f                      67.438597908     524304.5837                            ;
 Sk                      115.65060629    522386.49636                            ;
 nq                       101.2143664    252431.60251                            ;
 xj                      82.274331399     411749.4725                            ;
 IV                      92.592093111    616571.24519                            ;
 IL                      110.25192095     495851.9331                            ;
 Hb                      130.54697749    721289.13827                            ;
 72                      100.03406125    645000.98071                            ;
 iV                      98.320641003    772165.30137                            ;
 x2                       110.9925746    747433.25631                            ;
 a4                      128.37278628    181711.86765                            ;
 O2                      72.317644697    261492.41344                            ;
 o2                        126.738561    272580.21445                            ;
 Rp                      124.90526747    161186.45496                            ;
 4c                      88.389252344     215313.8001                            ;
 ii                      118.24649884    434074.35776                            ;
 AHf                     97.612301066    479131.98347                            ;
 K11                     76.852678327    424125.97966                            ;
 cn0                     92.368646671    729476.06446                            ;
 pRJ                     123.01247805    320057.68207                            ;
 5Ig                       108.884274    501796.80224                            ;
 UXW                     101.73563139    593740.67471                            ;
 t3F                     117.84943385    598734.38248                            ;
 sMu                     95.993907977    605505.59809                            ;
 Dqo                     116.03074101    694079.99734                            ;
 yjO                     86.037664366    447659.04524                            ;
 q2n                     115.80139171    409943.93693                            ;
 WCP                     102.40394511    616200.50251                            ;
 vE0                     84.943429922     627820.0181                            ;
 cnU                     111.08559805     608271.6812                            ;
 40K                     107.49554188    644292.48745                            ;
 3Yy                      88.54085062    502385.14954                            ;
 Fds                     121.08876018    653639.22534                            ;
 Jyn                     118.06195897     197513.0972                            ;
 ZPk                     98.274106939    648622.39779                            ;
 dWi                     72.935160854    718267.89246                            ;
 O9K                     76.311556634    473919.73911                            ;
 BK7                     101.78261111    757964.62201                            ;
 Mip                     85.969712177    687072.45926                            ;
 uGD                     79.901898615    360610.12491                            ;
 5IH                     101.41735769    637065.73191                            ;
 LO6                     99.622377317    265691.24044                            ;
 95H                     125.14734898    681662.31599                            ;
 SJ8                     102.66133047    519987.20432                            ;
 ngE                     114.32434126    776001.82533                            ;
 eDX                     129.98982906    534232.94337                            ;
 kQc                     127.79505075    719756.51021                            ;
 mTx                     82.647228315    609102.94425                            ;
 x7D                     123.22260858    264239.96634                            ;
 IuL                     93.050750791    216037.54925                            ;
 Ius                     116.13959747    218731.36936                            ;
 Hl1                     112.75122432    306831.42667                            ;
 z8u                     116.70832289    643121.39782                            ;
 icL                     127.95260502    590155.71183                            ;
 O9V                     95.167117946    176580.71888                            ;
 RfC                     87.611215082    431421.29663                            ;
 i45                     105.62105201    426042.24864                            ;
 KWW                     101.50315209    701546.59204                            ;
 c0u                     106.16502841    279704.22618                            ;
 5na                     111.41510066    229947.30699                            ;
 UK6                     95.670970923    214573.52722                            ;
 M70                     120.02453502     525650.3541                            ;
 DEO                     113.56106839    481479.71693                            ;
 gNQ                     118.24994122    176208.12175                            ;
 0GY                     69.220516533    563718.83654                            ;
 tkX                     130.00591878    232442.34666                            ;
 sxg                     127.61648027    300254.11597                            ;
 flM                     91.560441178    522957.12131                            ;
 1C2                     120.89789786    388376.33581                            ;
 9ch                     95.435119118    419493.04771                            ;
 X12                     115.25534891    407639.57298                            ;
 4ud                     130.21104818     452058.6831                            ;
 3Qe                     105.10164295     312025.0347                            ;
 T8y                     75.307552586    734629.88725                            ;
 Je0                     123.26447978    195014.38228                            ;
 Fbo                     115.83542189    331030.35318                            ;
 lZt                     80.325143381    480784.22725                            ;
 Z28                      76.32444835     359415.3805                            ;
 d67                     108.86840281    171333.86741                            ;
 Oid                     120.98058316    551558.08558                            ;
 GTj                      94.36162982    552062.20934                            ;
 Bd5                      101.4692131    530745.36887                            ;
 umv                     105.99237224    531850.61311                            ;
 LMp                     85.304675561     425829.6063                            ;
 bpm                     100.82558472    777729.41927                            ;
 9cy                     112.64477786    425358.91001                            ;
 naP                     108.44298046    270407.35964                            ;
 kr4                     93.149874992     543320.7599                            ;
 mz9                     130.79640291    307217.08778                            ;
 x5v                     127.80063312    184622.25953                            ;
 Igs                     94.341472314    307878.10987                            ;
 Igo                     112.34810201    208440.43813                            ;
 HjW                     73.351813523    205011.52628                            ;
 7IL                     122.67421402    763962.77657                            ;
 zYg                     82.562321028    555634.73231                            ;
 atn                     90.165127025    371765.51255                            ;
 o9L                     81.191907345    254991.51052                            ;
 RHS                     81.144203984     610328.4566                            ;
 CJC                     93.455229172    557889.35552                            ;
 iIc                     102.82320429    327314.20595                            ;
 Aey                     100.61780088    703601.66149                            ;
 K66                     89.627337053    599071.03299                            ;
 50G                     84.716838421     533498.3584                            ;
 DPM                     73.802278167    281817.07989                            ;
 0mQ                     110.83462658    757388.32708                            ;
 t8K                     92.342255257     626067.5488                            ;
 s9a                     109.30687446    676620.89315                            ;
 yvx                      84.94130843    400867.83504                            ;
 Nkb                     96.551904792    645765.42803                            ;
 qLu                     94.879566614    601498.07092                            ;
 WRV                      99.24703688    511584.51391                            ;
 1SV                     84.084430562    783825.20603                            ;
 94w                      70.01771414     234477.0746                            ;
 TYe                     94.121401216    446779.38589                            ;
 Jlu                     125.74452919    613350.53303                            ;
 lqT                     89.662301689    497871.53493                            ;
 ZVY                     118.57118841     499753.2073                            ;
 GzD                     76.142746075     593903.0083                            ;
 7nR                     77.444702345    513253.63167                            ;
 6Aa                     116.94512853    675888.79494                            ;
 LxC                     95.392322635    532133.02428                            ;
 bCN                     130.15565099    349887.71789                            ;
 94e                      77.16249526    179055.86722                            ;
 SHQ                     86.980847561    635108.09891                            ;
 khI                     125.76035947    298451.51208                            ;
 m3i                     111.32639888    257590.44732                            ;
 IaO                     107.03481075    324106.52461                            ;
 HD6                     84.581294524    297930.88406                            ;
 7ns                     114.21640673    360841.06759                            ;
 zQa                     122.57447892     750907.2423                            ;
 xcs                     80.272804397    489688.87196                            ;
 aT0                     101.35612932    677892.76474                            ;
 O7s                     118.73875021    729132.18499                            ;
 ois                     107.54080051    435332.92019                            ;
 4a0                     110.47829123    635897.82341                            ;
 Ale                     80.529262229    317003.44757                            ;
 Kpp                     115.74387651    678359.64849                            ;
 cga                     121.60241277    560396.74389                            ;
 pfy                     94.446175473    179036.29346                            ;
 jPL                     111.49262094    602080.26296                            ;
 5um                     96.575913445    547811.98382                            ;
 UbC                     73.366569264      628140.819                            ;
 Mcg                     74.730829726    618031.36806                            ;
 D2x                      116.4365822    331128.45987                            ;
 siG                     84.879128567    518308.17182                            ;
 yZ9                     83.686517049     285203.4765                            ;
 fD9                     91.358258259    573440.79358                            ;
 qsg                     104.57177781    413206.39693                            ;
 WAL                     95.115206924    431790.03464                            ;
 1RL                       75.1102384    521797.72132                            ;
 cgX                     87.408788957     363380.8111                            ;
 9IU                     112.37132742    782746.17153                            ;
 X6L                     121.40812563    196998.62598                            ;
 4a1                     107.76456079    223509.95053                            ;
 Jjg                     119.17718906    277616.94623                            ;
 lEz                     111.42939581    437765.64991                            ;
 O51                     122.03433497    590432.45742                            ;
 70A                     113.22712707    175931.43068                            ;
 B14                     105.98552521    228674.60967                            ;
 utq                     125.58669693    685045.17244                            ;
 5ul                     119.56824628    371379.52783                            ;
 L9S                     123.30014336    482182.36617                            ;
 bSt                     117.91036207    673990.33222                            ;
 Syr                      104.1073347    526005.12546                            ;
 nmV                     101.50985001    222005.87375                            ;
 IGO                     110.89864322    373615.79833                            ;
 IGM                     103.50598236    345008.10521                            ;
 Hvp                     103.25603554    402578.58127                            ;
 70o                     89.005068255    767260.44997                            ;
 zrG                     128.22799607    551755.15329                            ;
 inO                     74.105539154    358131.51431                            ;
 x4o                     122.99065539    429144.61516                            ;
 azu                     70.387147204    550593.65362                            ;
 O5o                     95.439764932    697689.34471                            ;
 4Gu                     76.219421978     486830.8945                            ;
 Ajl                     103.66283383    330465.06714                            ;
 KCC                     89.063235184    581535.35298                            ;
 pHe                     111.87486711    758840.72889                            ;
 DV9                     108.96212406    765180.92255                            ;
 gzw                     121.34474006    203753.56307                            ;
 0th                     67.222654594    752080.04319                            ;
 tQb                     84.578334465    661268.46399                            ;
 s7m                     120.43295511    266393.18454                            ;
 yqi                     123.13840871    333709.11576                            ;
 NYW                     129.25408895    675778.18945                            ;
 fvi                      80.96746868    344849.83066                            ;
 qoa                     68.028132737     772419.2036                            ;
 WJs                     77.729795722    426381.02915                            ;
 1As                     130.51654337     312181.9339                            ;
 9nB                     79.027054774    596001.12113                            ;
 Xps                     106.00331147     321085.0917                            ;
 F6x                     76.293778202    686282.36476                            ;
 lP3                     100.17984914    162952.17073                            ;
 Zsr                     68.521909105      600311.192                            ;
 vVa                     125.08249249    550578.73537                            ;
 5gj                      80.67310333    488039.84773                            ;
 Seh                     66.887860202    621571.93449                            ;
 eE1                     98.124672681    250355.14186                            ;
 xIE                     122.78186659    440281.47899                            ;
 ImM                     90.669479272    332100.75603                            ;
 Imx                     125.27134109    415989.24148                            ;
 7uO                     128.09676278    219209.13847                            ;
 zhm                     127.27590611    747806.16316                            ;
 xIO                     70.238385388    159369.64728                            ;
 a3g                     100.78183293    263408.69079                            ;
 OcO                     105.53326374    505649.27663                            ;
 ocM                     75.711249636    191664.28811                            ;
 Rjf                     114.35419077    340083.65888                            ;
 CeJ                     106.54102836    201409.67183                            ;
 4mg                     67.581347294    176702.47582                            ;
 iun                     101.63129511    355270.60945                            ;
 ADj                     128.91685225    568687.52671                            ;
 KSS                     114.48053966    563242.63627                            ;
 cGm                     110.37142765    510175.24358                            ;
 5at                     115.67244626    185424.63989                            ;
 UWR                     98.205616244    629752.71756                            ;
 MIG                      86.64957152    266032.90075                            ;
 DLi                     106.46518644    606305.70028                            ;
 g3U                     130.90369004    711504.34358                            ;
 0Tw                     96.544927173    205785.56715                            ;
 yE7                     74.816204655    690045.58473                            ;
 Wfo                     99.488663776    551886.89864                            ;
 1Jo                     111.92970095    355356.82919                            ;
 vsm                     93.560910706    234276.73012                            ;
 XCo                     114.08127823    213785.36837                            ;
 3Uv                     84.154914258    768770.98631                            ;
 ThD                     103.09622696    198944.58418                            ;
 JvG                     102.26985023    438900.51428                            ;
 Fp9                     108.82432269    612262.51603                            ;
 l2k                      113.8358293    494324.53935                            ;
 Zoh                     73.978055822    619282.34673                            ;
 O46                     121.15891309    465102.77771                            ;
 G8q                     104.05781837    247887.74963                            ;
 7gf                     128.72259048    509758.92956                            ;
 6HN                     94.285149868    525078.76677                            ;
 MIJ                     93.201428847    671766.99152                            ;
 uzP                     104.04314404    313196.17757                            ;
 L7A                     69.631384889    769582.81731                            ;
 90D                     127.69540783    202720.72416                            ;
 Slw                     83.372268286    771488.48155                            ;
 kBu                     120.36188354    395041.18596                            ;
 mYc                     104.42431199    665308.23285                            ;
 xnP                     126.78836901    743745.01103                            ;
 INx                      74.40167567    388701.32663                            ;
 IN9                     108.51372656    397280.37805                            ;
 HqS                     89.940290597    293758.44168                            ;
 iux                     85.434412178    291026.67437                            ;
 xnM                     82.916747978    196675.99149                            ;
 aka                     74.378967082    181395.48875                            ;
 OIx                     101.92419961    327080.35946                            ;
 o4x                     118.46741224    500197.72997                            ;
 RDH                     121.32080137    667083.19619                            ;
 Clf                     104.98829936    603869.66637                            ;
 4Na                      109.3196811    159415.98663                            ;
 ig0                     89.648412074    275474.54232                            ;
 AvD                     93.313391298    597479.15176                            ;
 KRR                     106.18507193    623582.12485                            ;
 U6A                     78.844177272    730020.49162                            ;
 Mnm                     130.90459233    381212.63193                            ;
 0zU                     98.592073174    566900.76037                            ;
 thW                     79.073632061    607154.37896                            ;
 zwN                     70.740659222    193974.58407                            ;
 sct                     69.248869777    432831.09742                            ;
 yP5                     110.77990941    164985.47595                            ;
 qMm                     69.485652017    671549.14183                            ;
 WHO                     83.208033478     312861.5237                            ;
 1fO                     127.89730507    404272.98178                            ;
 voN                     108.13863724    647292.38526                            ;
 cmb                     97.006184687    338688.27846                            ;
 XSO                     113.92660419     664469.2897                            ;
 4Np                     92.692627836    649295.90175                            ;
 Twv                     106.97628544    525468.54319                            ;
 JZm                     102.71002435     589855.8362                            ;
 FCi                     130.76339338    727065.71095                            ;
 lV8                     121.76259174    484779.38576                            ;
 dAn                      123.7422761    678577.01096                            ;
 OIp                     83.635792469    756792.31671                            ;
 GYE                     123.43861658    601901.11896                            ;
 7aH                     74.426909632     543909.4728                            ;
 6yt                     75.220531905    762470.62461                            ;
 Bp0                     130.10621382    387999.52432                            ;
 Mnf                     93.393131314    264174.70189                            ;
 u32                     67.582049809    529038.90364                            ;
 5Gv                     108.07048557    353599.48934                            ;
 L5J                     110.06594459    228331.98246                            ;
 SjU                     128.76993738    543392.98632                            ;
 nTo                     82.466865492    405381.12801                            ;
 kFg                     107.23359926    418383.84421                            ;
 mQ4                     71.544918718    773876.01189                            ;
 x02                     130.64530502     353254.5709                            ;
 It9                     99.144060001    653020.61854                            ;
 HER                      67.48646724    441196.87369                            ;
 7ax                     100.27510377    243287.42222                            ;
 zUt                     72.986398314     647778.6053                            ;
 ig9                     117.94551091    357202.80982                            ;
 x0x                     100.01171272    228720.74937                            ;
 aYm                     69.920958216    420951.88152                            ;
 On9                     80.890066733    309288.93282                            ;
 oI9                     115.11771328    715203.51294                            ;
 Rvy                     68.057694081    580069.51925                            ;
 CjH                     97.036965593    760841.45217                            ;
 AZv                     93.418717616    199510.16711                            ;
 KAA                     85.153992582    688076.80139                            ;
 cNt                     115.87598941    453987.61679                            ;
 plD                     70.396347021    780402.88454                            ;
 jsM                     89.654093105    625241.47878                            ;
 UpJ                     125.77992993    754665.57485                            ;
 M0N                     95.769914562    662963.17516                            ;
 Do5                     69.139779854    249295.48662                            ;
 g8F                     86.578953079    764645.97187                            ;
 03B                      100.4987338    557517.02486                            ;
 tw6                     93.014007926    625705.72565                            ;
 s4T                     115.51602244    747062.95497                            ;
 NhC                     95.092736821    566765.58605                            ;
 fEc                     121.59023691    550696.56802                            ;
 WyM                     94.213391808      420766.073                            ;
 1HM                      112.4478495    450036.32971                            ;
 vOt                     130.79139621    523104.21197                            ;
 cN1                     124.71399178    566942.56956                            ;
 9gK                     67.121324126    686213.36398                            ;
 XRM                     97.463798444    204061.51416                            ;
 4tC                     130.30785792    738849.57308                            ;
 TUZ                       105.100102    480607.12962                            ;
 JqN                     93.958959493    766870.54184                            ;
 FS7                     90.754821652    655886.79726                            ;
 lLY                     112.52234927    440103.41471                            ;
 ZMU                     97.227081206    232669.26925                            ;
 dJ0                     96.326955537    522676.24534                            ;
 OnC                     121.11294708     580878.2515                            ;
 7Gy                     104.66517408    366075.57639                            ;
 6eT                      86.51170632     653625.2002                            ;
 M0H                     103.07561401     645666.2369                            ;
 ukV                     105.76656637    501912.70233                            ;
 eVp                      78.40344928    173447.94477                            ;
 mrI                     126.82082359    253992.59808                            ;
 ITi                     116.01227693    665218.45016                            ;