[TITLE]

[JUNCTIONS]
;ID                      Elevation       Demand Pattern                 
 Kb                      67.802765372     522836.0125                            ;
 FL                      70.857496431    660578.24608                            ;
 d9                       90.45743189    466613.62973                            ;
 s0                      70.986189697    597221.90796                            ;
 1E                      101.04494734    686393.75034                            ;
 cw                      67.132767075     207810.4989                            ;
 cw_valve_start          122.46780094    467617.41082                            ;
 cw_valve_end            122.72322142    173404.02532                            ;
 Tf                      76.647243501    398185.54115                            ;
 Tf_valve_start          117.09928878    412692.83074                            ;
 Tf_valve_end            106.02729173    258695.44517                            ;
 g8                      67.614735712    506493.78344                            ;
 0k                      80.687012637    411261.82183                            ;
 tB                      90.049622658    461364.33589                            ;
 tB_valve_start          97.502592047    780972.48926                            ;
 tB_valve_end            105.43680403    641128.10227                            ;
 Ge                      71.820149845    640232.37601                            ;
 Ge_valve_start          65.845626022    761338.72321                            ;
 Ge_valve_end            116.35282882    614263.01638                            ;
 M6                       86.45111485    720118.46354                            ;
 7p                      67.515546529    628354.91402                            ;
 5u                       102.3257717    784828.79264                            ;
 5f                      94.551302624    763767.51831                            ;
 9Q                      85.201925037    451056.40045                            ;
 9Q_valve_start          74.720121339    373773.26961                            ;
 9Q_valve_end            81.477406567    369665.57038                            ;
 3H                      126.37602688    581819.00688                            ;
 Ds                       77.19106222    311515.75632                            ;
 Ds_valve_start          82.437380279    603222.01308                            ;
 Ds_valve_end            74.697640873    160722.34298                            ;
 MI                      73.082312142    259757.57219                            ;
 XE                      66.518565057    270249.77639                            ;
 qI                       93.16364719    215443.05869                            ;
 qI_valve_start          118.59956801    501220.04875                            ;
 qI_valve_end            108.36795893    318490.87916                            ;
 OX                      71.732222402    458554.98184                            ;
 OX_valve_start          130.42177768    785136.76255                            ;
 OX_valve_end            103.90613114    211744.68399                            ;
 fo                      68.806406509    583318.36587                            ;
 9f                      74.797614724     245099.8507                            ;
 JI                      115.74084597    488080.42383                            ;
 lm                      107.62756916    237571.72296                            ;
 LW                      129.67666762    762075.85158                            ;
 WE                      72.219845474    296647.97897                            ;
 WE_valve_start          89.313746453    299042.08822                            ;
 WE_valve_end            105.74414927    192205.65963                            ;
 NX                      82.694545817    415890.69937                            ;
 60                      79.618194405    285978.15508                            ;
 U1                      99.998388682    366862.00397                            ;
 Z3                      94.291110659    514211.81233                            ;
 uj                      120.50216338    610887.81747                            ;
 uj_valve_start          92.834905019    200867.20106                            ;
 uj_valve_end            87.798558629     684602.3598                            ;
 yo                      100.31954584    237688.63538                            ;
 Bi                      75.627885633    749709.50508                            ;
 vn                      125.26471427    566788.62238                            ;
 4X                      120.83019006    168167.24203                            ;
 jE                      100.48924465    497168.89467                            ;
 jE_valve_start          117.54334593    634715.26244                            ;
 jE_valve_end            88.133042683     686631.8949                            ;
 cn                      85.880946888    525954.03453                            ;
 pA                      102.76125749    316395.31824                            ;
 ba                      118.62775513    483119.17097                            ;

[RESERVOIRS]
;ID                                   Head                  Pattern

[TANKS]
;ID                              Elevation           Init Level            Min Level            Max Level             Diameter           Min Volume Volume Curve         Overflow            

[PIPES]
;ID                   Node1                Node2                              Length             Diameter            Roughness           Minor Loss               Status
 s0                   vn                   cw_valve_start          25.697473753    11968.503937             140               0                 Open   ;
 fo                   JI                   Tf_valve_start          10.109940945    31496.062992             140               0                 Open   ;
 Ds                   s0                   tB_valve_start               159.975    11968.503937             120               0                 Open   ;
 cw                   7p                   Ge_valve_start          5.4715879265     7874.015748             130               0                 Open   ;
 yo                   XE                   9Q_valve_start          912.56502625     19685.03937             150               0                 Open   ;
 U1                   MI                   Ds_valve_start          5.2341863517     9842.519685             120               0                 Open   ;
 0k                   fo                   qI_valve_start         0.82919947507    11811.023622             130               0                 Open   ;
 vn                   d9                   OX_valve_start          4.9156496063     7874.015748             130               0                 Open   ;
 tB                   1E                   WE_valve_start          13.074048556    11968.503937             120               0                 Open   ;
 XE                   M6                   uj_valve_start          4.6048884514    31496.062992             140               0                 Open   ;
 cn                   pA                   jE_valve_start           8.701476378    31496.062992             140               0                 Open   ;
 pA                   jE_valve_end         Kb                      2.3576115486    31496.062992             140               0                 Open   ;
 qI                   U1                   FL                      244.26361549    35433.070866             130               0                 Open   ;
 g8                   yo                   NX                      3.6238188976    11968.503937             120               0                 Open   ;
 1E                   lm                   Z3                      1027.4865814    35433.070866             130               0                 Open   ;
 MI                   g8                   0k                       9.281496063    11811.023622             130               0                 Open   ;
 NX                   4X                   3H                      55.819685039    15748.031496             130               0                 Open   ;
 Kb                   Kb                   cn                      3.1335958005    31496.062992             140               0                 Open   ;
 jE                   cn                   5u                      514.68287402    35433.070866             130               0                 Open   ;
 WE                   FL                   lm                      33.134350394    35433.070866             130               0                 Open   ;
 9Q                   60                   Bi                      814.14393045    35433.070866             130               0                 Open   ;
 Tf                   9f                   M6                      8.5393044619    31496.062992             140               0                 Open   ;
 3H                   ba                   5f                      10.690715223           20000             120               0                 Open   ;
 5u                   5u                   U1                      1095.2941929    35433.070866             130               0                 Open   ;
 4X                   5f                   LW                      46.032086614           20000             120               0                 Open   ;

[PUMPS]
;ID                   Node1                Node2                Properties          

[VALVES]
;ID                   Node1                Node2                            Diameter Type              Setting           Minor Loss
 cw_TCV_valve         cw_valve_start       cw_valve_end            11968.503937 TCV                0               0   ;
 Tf_FCV_valve         Tf_valve_start       Tf_valve_end            31496.062992 FCV                0               0   ;
 tB_PRV_valve         tB_valve_start       tB_valve_end            11968.503937 PRV                0               0   ;
 Ge_FCV_valve         Ge_valve_start       Ge_valve_end             7874.015748 FCV                0               0   ;
 9Q_PRV_valve         9Q_valve_start       9Q_valve_end             19685.03937 PRV                0               0   ;
 Ds_PRV_valve         Ds_valve_start       Ds_valve_end             9842.519685 PRV                0               0   ;
 qI_PRV_valve         qI_valve_start       qI_valve_end            11811.023622 PRV                0               0   ;
 OX_PRV_valve         OX_valve_start       OX_valve_end             7874.015748 PRV                0               0   ;
 WE_PSV_valve         WE_valve_start       WE_valve_end            11968.503937 PSV                0               0   ;
 uj_PRV_valve         uj_valve_start       uj_valve_end            31496.062992 PRV                0               0   ;
 jE_PSV_valve         jE_valve_start       jE_valve_end            31496.062992 PSV                0               0   ;

[TAGS]
;type      name       tag       

[DEMANDS]
;ID        Demand     Pattern   

[STATUS]
;ID        Setting   
cw_TCV_valve Open      
Tf_FCV_valve Open      
tB_PRV_valve Open      
Ge_FCV_valve Open      
9Q_PRV_valve Open      
Ds_PRV_valve Open      
qI_PRV_valve Open      
OX_PRV_valve Open      
WE_PSV_valve Open      
uj_PRV_valve Open      
jE_PSV_valve Open      

[PATTERNS]
;ID        Multipliers

[CURVES]
;ID         X-Value      Y-Value     

[CONTROLS]

[RULES]

[ENERGY]
GLOBAL PRICE           0.0000

[EMITTERS]
;ID        Flow coefficient

[QUALITY]

[SOURCES]
;Node      Type       Quality    Pattern   

[REACTIONS]
;Type           Pipe/Tank               Coefficient

 ORDER BULK 1
 ORDER TANK 1
 ORDER WALL 1
 GLOBAL BULK 0.0000    
 GLOBAL WALL 0.0000    

[MIXING]
;Tank ID             Model Fraction

[TIMES]
DURATION             00:00:00
HYDRAULIC TIMESTEP   01:00:00
QUALITY TIMESTEP     00:06:00
PATTERN TIMESTEP     01:00:00
PATTERN START        00:00:00
REPORT TIMESTEP      01:00:00
REPORT START         00:00:00
START CLOCKTIME      00:00:00 AM
RULE TIMESTEP        00:06:00
STATISTIC            NONE      

[REPORT]

[OPTIONS]
UNITS                GPM                 
HEADLOSS             H-W                 
SPECIFIC GRAVITY     1
VISCOSITY            1
TRIALS               200
ACCURACY             0.001
CHECKFREQ            2
MAXCHECK             10
UNBALANCED           STOP                
PATTERN              1                   
DEMAND MULTIPLIER    1
EMITTER EXPONENT     0.5
QUALITY              NONE                
DIFFUSIVITY          1
TOLERANCE            0.01

[COORDINATES]
;Node      X-Coord    Y-Coord   
Kb             447848.750900000     191645.535000000
FL             447734.249100000     192199.426300000
d9             537453.950400000     176651.702700000
s0             528175.000000000     181172.900000000
1E             528059.400000000     181521.199999999
cw             430238.352900000     210431.430100000
cw_valve_start     430238.352900000     210431.430100000
cw_valve_end     430238.352900000     210431.430100000
Tf             447848.587600000     191561.963000000
Tf_valve_start     447848.587600000     191561.963000000
Tf_valve_end     447848.587600000     191561.963000000
g8             537829.700000000     179793.600000000
0k             537832.500000000     179793.199999999
tB             528189.000000000     181126.199999999
tB_valve_start     528189.000000000     181126.199999999
tB_valve_end     528189.000000000     181126.199999999
Ge             537451.826900000     176648.027799999
Ge_valve_start     537451.826900000     176648.027799999
Ge_valve_end     537451.826900000     176648.027799999
M6             534862.900000000     186155.000000000
7p             537452.661300000     176649.471799999
5u             447815.931000000     191799.915700000
5f             535625.600000000     180979.600000000
9Q             430260.832500000     210455.022399999
9Q_valve_start     430260.832500000     210455.022399999
9Q_valve_end     430260.832500000     210455.022399999
3H             451129.272600000     190643.334100001
Ds             481880.800400000     195517.000000000
Ds_valve_start     481880.800400000     195517.000000000
Ds_valve_end     481880.800400000     195517.000000000
MI             481879.207800000     195517.094100000
XE             430502.316700000     210576.715200000
qI             545336.900000000     193041.199999999
qI_valve_start     545336.900000000     193041.199999999
qI_valve_end     545336.900000000     193041.199999999
OX             537454.700000000     176653.000000000
OX_valve_start     537454.700000000     176653.000000000
OX_valve_end     537454.700000000     176653.000000000
fo             545336.534800000     193040.854499999
9f             534862.800000000     186157.600000000
JI             447848.593600000     191565.044500001
lm             447735.373200000     192209.462900000
LW             535639.600000000     180980.500000000
WE             528058.200000000     181525.000000000
WE_valve_start     528058.200000000     181525.000000000
WE_valve_end     528058.200000000     181525.000000000
NX             528099.100000000     181105.900000000
60             458873.100000000     183504.100000000
U1             447746.410400000     192126.442600001
Z3             447703.946500000     192513.247500001
uj             534864.300000000     186155.100000000
uj_valve_start     534864.300000000     186155.100000000
uj_valve_end     534864.300000000     186155.100000000
yo             528098.000000000     181105.800000001
Bi             458980.821800000     183297.055900000
vn             430239.541400000     210426.009400001
4X             451138.047700000     190657.910399999
jE             447848.749200000     191644.687300000
jE_valve_start     447848.749200000     191644.687300000
jE_valve_end     447848.749200000     191644.687300000
cn             447848.752800000     191646.512300000
pA             447848.744000000     191642.035100000
ba             535622.500000000     180978.600000000

[VERTICES]
;Link      X-Coord    Y-Coord   

[LABELS]

[BACKDROP]
UNITS    NONE

[END]
