[TITLE]

[JUNCTIONS]
;ID                      Elevation       Demand Pattern                 
 kD6E                    36.950294698    13596.739926                            ;
 mfXj                    28.368684888    12505.160103                            ;
 I6QH                    26.119125108    44588.176037                            ;
 7d3J                    26.696251796    12422.336588                            ;
 xFtW                    21.011453238    27472.365616                            ;
 I6Qf                    35.501132811    14739.728745                            ;
 HgOk                    28.689242683    10654.806255                            ;
 HgcU                    29.222436289    34715.825992                            ;
 zl1s                    22.075674223    34671.652588                            ;
 UVf8                    30.522911621    45549.218181                            ;
 iKzf                    20.179923167     15883.74435                            ;
 xFtJ                    39.210016187    43570.094745                            ;
 OUNz                    36.966211397    48565.806582                            ;
 aAB2                    38.681976756     35653.44198                            ;
 OUmJ                    23.813606818    34454.359578                            ;
 4WrV                    20.407910545    44033.388611                            ;
 dMDZ                    21.421156731    34354.542312                            ;
 iKzZ                    35.099889399    26077.695325                            ;
 owGJ                    27.944531009    15740.110014                            ;
 RIVr                    27.913178661    30965.713742                            ;
 OUtH                    37.244529331    10779.239584                            ;
 fuOl                    27.531970605     44300.52082                            ;
 CcPQ                    31.365127546    11145.533847                            ;
 4WYP                    25.744324131    30811.481029                            ;
 AnLF                    38.691396579    28857.295758                            ;
 c1Ym                    37.867760835    10896.459416                            ;
 19ZA                    37.472486154    12771.800924                            ;
 7dkh                    32.941274977    15082.870593                            ;
 KOlk                    23.410146771    28061.507142                            ;
 c1rO                    32.505063128    22482.936688                            ;
 c18L                    27.493470924    44871.102238                            ;
 Fsey                    39.634203816    46952.934647                            ;
 p5VK                     27.66386379    22807.715559                            ;
 p5EB                    37.229854262    40007.018341                            ;
 GJpA                    39.750613938    31872.122034                            ;
 Te1K                    35.758739874     19985.05874                            ;
 jNiR                     31.16882069    38017.564684                            ;
 5bko                    30.067071863    40607.180651                            ;
 4WQz                    26.592045715    13842.571149                            ;
 aA69                    30.504559654    11448.446237                            ;
 gRUn                    33.996047907    26127.964654                            ;
 MBNV                    34.746846199    42856.351923                            ;
 Dt7y                    39.583859969    14932.010335                            ;
 9XhC                    36.861593911    21346.275778                            ;
 S47T                    22.712343392    28025.679183                            ;
 0ChI                    35.532159218    49558.980779                            ;
 3j6d                    24.862966805    46784.631384                            ;
 tydN                    39.113342155    10856.466859                            ;
 4WXh                    38.691669512    25950.367637                            ;
 shas                    36.134858036    30094.740345                            ;
 3jfS                    35.242161307    25218.629032                            ;
 yaxl                    28.964219272    28127.652158                            ;
 AnoK                     28.14794046    29635.437637                            ;
 NHdz                    22.159364202    22831.915924                            ;
 0C1t                    24.246958199    31830.600617                            ;
 Zz4I                     25.04565759    21768.626692                            ;
 WiqA                    33.204842693    15102.410113                            ;
 q3IL                    27.440326302    46511.657344                            ;
 67Eo                    35.681762894    36087.887711                            ;
 FsZv                     24.55305344      36323.7898                            ;
 vTcs                    38.245135533    22588.398717                            ;
 lmii                    35.332582105    46338.121835                            ;
 XolA                    36.046484248    18878.047479                            ;
 9Xzg                    29.142249316    36009.376154                            ;
 J0oL                    22.864843292     23048.33431                            ;
 4WBQ                    39.768920338    39915.769489                            ;
 TeS6                    29.775377874    34452.354169                            ;
 Dt0Z                    34.415733462    19927.226607                            ;
 GJX1                    31.097395887    40499.376997                            ;
 7dhj                    25.116614133    40670.829381                            ;
 WiEJ                    22.320760324    10250.265181                            ;
 lmrr                     22.08695159    15248.742588                            ;
 c1QN                    29.644125796    31697.420739                            ;
 19qJ                    29.221623019    17382.290256                            ;
 vT4o                    20.070439341    37674.202786                            ;
 AnOd                    39.565980553    29973.100262                            ;
 gRbm                    25.718346964    15035.252233                            ;
 9X3a                    33.805976147    13313.329832                            ;
 XojJ                    33.341759556    33633.309834                            ;
 19Ov                    29.385623514    40539.101548                            ;
 TeWd                    29.364762241    23352.973876                            ;
 4Wr3                    34.253654037     39447.40259                            ;
 3jpb                    23.577150774    49443.763514                            ;
 J0Os                     38.93558939    21752.905478                            ;
 iKwZ                    21.386175804    24435.251402                            ;
 XoPj                    27.951484942    16078.091608                            ;
 jNGZ                    23.028444198    39980.142605                            ;
 shNM                    36.534942138    36882.156621                            ;
 Fsle                    31.605569385    14798.249695                            ;
 lm77                    29.799178567    15021.089227                            ;
 9X3d                      26.1818105     24530.64333                            ;
 uSBp                     30.48615477       26775.818                            ;
 xFkS                    32.551729099    36565.396175                            ;
 ZzIn                    37.470648227    27491.021255                            ;
 dMvq                    24.004322577    49077.147857                            ;
 lm55                    34.879415785    40090.828722                            ;
 5bXR                      27.2145938    29290.237251                            ;
 0CXa                     26.15596157     25782.15409                            ;
 OUt3                    36.154043806    29369.290744                            ;
 GJKW                    30.252051682    43940.813931                            ;
 7d8w                    34.365920457    48113.766078                            ;
 zlfc                    23.610225464    22361.251661                            ;
 67PO                    29.212698095    15988.106724                            ;
 BLeE                    35.295276442    37719.593511                            ;
 fu9v                    33.241354687    27753.099867                            ;
 MBTh                      20.3214819    44574.607566                            ;
 MBzw                    31.710049516    45007.806135                            ;
 5bYd                    34.745788125    23756.575155                            ;
 OUTk                     36.51357431    42885.669267                            ;
 LrGr                    36.683990099      48425.6884                            ;
 bxZ9                    30.090198713    17536.996628                            ;
 iKUO                    29.078357292    41832.559953                            ;
 OUze                     20.07496491    37009.336301                            ;
 iKQj                    26.572945549    23924.329091                            ;
 c1F8                    23.103596499     15547.11355                            ;
 npBf                     34.61155959    18488.364326                            ;
 S4L0                    37.669365536    26981.964395                            ;
 npwA                    33.955672697    32742.532862                            ;
 eGiz                    20.596509609    18141.260767                            ;
 kDC2                    26.460125635    18104.650434                            ;
 q3mi                    36.425065871    19661.153542                            ;
 WiLe                     35.20971987    48860.310505                            ;
 CcLw                    31.776266172    25882.551097                            ;
 mfdv                     36.31420251    37833.085479                            ;
 9X8m                    34.758400245    36843.488127                            ;
 xFzp                     32.67623436    39560.862785                            ;
 NHW8                    33.200991305    12285.237694                            ;
 vTG5                    39.737576396    41205.211293                            ;
 tyJh                    31.306642288    20029.709938                            ;
 I6hy                    39.313116993    10254.642696                            ;
 I6he                    37.509988212    34932.730946                            ;
 HgxY                    24.278820409    36219.603604                            ;
 7d8H                    23.608143089    12485.829516                            ;
 c1wx                    26.461543275    49973.797745                            ;
 NHCr                    36.009727213    33323.401995                            ;
 jN5J                    34.790765982    19168.644197                            ;
 zl6O                    25.491541016    47460.783033                            ;
 iKky                    33.392215801    35925.851733                            ;
 4WhL                      39.2440139    32800.187889                            ;
 bx2c                    30.931516166    30823.341766                            ;
 c1rt                    26.551620266    49702.558036                            ;
 xFzH                    37.561503088    48298.758579                            ;
 aAXL                    24.377834083    16301.687463                            ;
 xFYj                    29.624949149    48125.922782                            ;
 owNH                     25.73605413    38502.404882                            ;
 iKwo                     36.04354539    29597.503178                            ;
 BLZs                    38.812468593    17439.264556                            ;
 RIsw                    29.060267511    26408.411794                            ;
 CcVh                    34.217115846    47695.021713                            ;
 Zzga                    36.884399326    44206.059434                            ;
 ya0V                     35.09030786    34639.331945                            ;
 yaiD                    23.130677236    42499.146656                            ;
 iKkE                    24.576124582     47372.49778                            ;
 I6Fv                    25.900595011    38767.954406                            ;
 I6Kq                    39.414335341    32362.471283                            ;
 KODY                    30.703864892    24917.107505                            ;
 c1Qo                    23.704520165    48367.740017                            ;
 p52X                    33.939314941     22992.52872                            ;
 sh8c                    25.588520113    33975.418795                            ;
 eGc8                    23.566207663    17160.059993                            ;
 I6Xv                     33.46837063    27027.214737                            ;
 5bYM                    28.263038061    42023.798935                            ;
 UVyQ                    22.600828951    12706.021279                            ;
 OUkQ                    35.790180725    48402.219828                            ;
 XoEl                    23.775612436    24431.269313                            ;
 aAWx                    25.699253906     33984.05436                            ;
 MBTs                    22.794778647    29129.766795                            ;
 Dtcl                    25.385863932    33178.164406                            ;
 gRFu                    25.998397505    26401.653973                            ;
 0CU0                    38.265641734    12386.033608                            ;
 tyWz                    36.480925376    14114.803857                            ;
 7dUd                    20.641963029    12452.320675                            ;
 Te6b                    35.474881901    34175.502452                            ;
 iK8P                    32.056174265    16944.568797                            ;
 NH1k                    22.433746582    16929.287508                            ;
 gRdG                    25.335131434    12324.655835                            ;
 fuxD                    32.552968232    44195.693968                            ;
 q30o                    37.101161802    39919.992261                            ;
 tyC8                    39.034949947    13698.663475                            ;
 kDJo                    35.226281863    24410.626054                            ;
 OUkj                    36.038223101    21058.335225                            ;
 WiPf                    35.513161734    39007.436141                            ;
 19Ef                    32.951934875    16465.992018                            ;
 LrNw                    22.485813031    10732.606342                            ;
 uSXS                    25.530237356    39259.298491                            ;
 vTIO                    25.894159489    49753.544595                            ;
 npKe                    34.371572704    45383.449638                            ;
 LrzF                    20.658629694    14567.323479                            ;
 9XkG                     27.03519977    21704.930814                            ;
 npFH                    26.863005253    41412.354763                            ;
 XoDf                     27.33197666    47086.845214                            ;
 dMqP                    23.324328508    19026.205749                            ;
 iKQV                    20.600729672    28866.934756                            ;
 4Whk                    36.106479913    12218.560393                            ;
 3jC1                    21.042588282    22115.303394                            ;
 p5sb                    28.688271311    47786.738217                            ;
 tyAr                    35.560861411    47556.473683                            ;
 J0Mo                    27.375032565    42598.504948                            ;
 Fsjl                    33.532625521    20041.752087                            ;
 MBQK                    26.032075273    19426.141127                            ;
 7dwD                    34.190955169    15962.735873                            ;
 vTa7                    39.974155643    33417.726335                            ;
 zlH4                    34.770004861    30223.678959                            ;
 Zzn0                     30.18473762    15434.120381                            ;
 dMZE                    32.320899455    21446.330744                            ;
 67L9                    33.876386322    18172.382142                            ;
 p5OW                    29.726559324    20227.630833                            ;
 GJd6                    36.925476934      18734.3179                            ;
 7dYU                    35.874815908     36871.91963                            ;
 npUJ                    28.129356481    44196.966548                            ;
 672M                    29.049827497    37453.428351                            ;
 BLlP                    26.024921145    11701.289835                            ;
 3jyA                    32.460484563    25285.315695                            ;
 lmII                    21.378183014    49825.178153                            ;
 S4su                    22.103592236    38493.324572                            ;
 uSFC                    36.817773214    46399.760495                            ;
 5bQb                    34.955256435    44194.344725                            ;
 Lrmh                    33.113557208    22105.962545                            ;
 eGuw                    25.395884302    27974.744315                            ;
 kDSV                    20.129315769    37217.899809                            ;
 q3uO                    33.847629307    21633.507459                            ;
 bxqi                    23.268399556    19746.011856                            ;
 9Xkb                    31.964707592    40264.598455                            ;
 iKYl                     30.28580911    19102.634834                            ;
 eG73                    35.565335891    12989.582809                            ;
 lmgg                     26.00822153    41448.083768                            ;
 S49N                    39.685773893     11113.27198                            ;
 mfbZ                    37.838929542    13172.225157                            ;
 xF3C                    22.275274767    31997.543219                            ;
 I6we                    27.177396737    14725.446996                            ;
 Ani6                    38.507581398    24861.713024                            ;
 I6wl                    39.533343552    21150.280685                            ;
 eG5k                    37.857592143    33527.513452                            ;
 Hg9Q                    37.483180189    26768.257708                            ;
 KOPU                    28.088637819    30531.266423                            ;
 S4MG                    29.301295759    29924.143537                            ;
 uSKR                    39.798616604    17452.417597                            ;
 7dYy                    34.568792313    35457.849527                            ;
 zlpM                     22.14723998    10398.803112                            ;
 iK8e                    22.480224868    34416.440344                            ;
 9XYW                    33.025261099    21528.722873                            ;
 5bhW                    35.873036092    14789.864019                            ;
 iKhs                    31.000299075    36765.542533                            ;
 xF3y                     24.23595721    29406.867939                            ;
 aAKs                    32.552485207    46210.531607                            ;
 xFhH                    23.621560329    42365.632245                            ;
 OUTy                    25.630054318    30627.842127                            ;
 q3gM                    34.181194242    14074.239774                            ;
 gR1N                    37.192019017    29942.328572                            ;
 owty                    36.719316418      21339.6645                            ;
 fucP                    31.541426655    43994.329632                            ;
 RIoU                    20.186981404     42016.56632                            ;
 9XrT                    30.141199475    41695.391687                            ;
 I6Ul                    32.026085981    17900.594306                            ;
 xF8l                    34.534592369    49481.229285                            ;
 kDAs                    37.672842098    14843.533976                            ;
 KOvQ                    39.249769478    26842.607123                            ;
 xFQJ                    36.412016871    23816.806232                            ;
 jN4H                    35.325050853    12920.187042                            ;
 KOZr                    33.978833342    24989.686154                            ;
 jNcf                     22.43133234    39764.946616                            ;
 5bQx                    30.997593603    16278.498303                            ;
 ow3j                    27.647053638    10524.301598                            ;
 UVer                    23.805698263    33929.348199                            ;
 9XYN                    34.507829466    21463.350327                            ;
 MBzo                    29.281341247    20717.280073                            ;
 Dt4j                    32.053918708    37297.313584                            ;
 OUrq                    34.154851757    27189.811322                            ;
 gRXg                     26.66825774    32256.895439                            ;
 7dhX                     35.73164505    23120.721859                            ;
 7drF                    39.159859553    42245.880064                            ;
 0CFg                    23.771032206    39909.887739                            ;
 KOVF                    34.389685796    13242.172427                            ;
 ty63                    22.653934496    36819.929691                            ;
 aAdo                    35.912778996    29748.167855                            ;
 Xo2D                    22.195812702    35262.692971                            ;
 shtx                    25.181771487    19843.164011                            ;
 ya7v                    27.193483448     40448.57766                            ;
 xFwq                    24.784724664    11533.969829                            ;
 ya5Z                     23.85513137    15028.274852                            ;
 p5M6                    20.728375033    49945.373792                            ;
 Wi2H                     22.04246392    42664.420268                            ;
 19PH                     30.63474826    44920.699984                            ;
 iKhv                    25.518909199    31898.394025                            ;
 J05i                    20.659154278    23394.016826                            ;
 typk                    32.893710865    20541.538823                            ;
 vTnM                    21.284365115    39424.313032                            ;
 c1hT                     24.99490938    10697.600875                            ;
 BLPM                    24.680439559    43975.894541                            ;
 ZzmN                    26.979370938    10203.404667                            ;
 FsEq                    24.726231681    26286.198766                            ;
 c1XY                    23.130179597    43925.067194                            ;
 XovH                    21.603014061    35604.536206                            ;
 4Ww8                    23.398426237    17091.791251                            ;
 Zzug                    27.075657927    37964.555068                            ;
 3jSW                    39.795726556    25783.801193                            ;
 HgIF                    34.050082673    24148.664753                            ;
 p5Ld                    26.018361723    34910.693138                            ;
 Tep1                    34.980755521    48961.661753                            ;
 J0xO                    25.814684083    41630.111004                            ;
 lmnn                    21.070087821    33180.430749                            ;
 4WFr                    23.671809267    40778.913309                            ;
 FsDj                    32.606854698    11259.665564                            ;
 TeRp                     20.64841049    11288.116658                            ;
 lmcc                    26.751546075    14658.790086                            ;
 3jJC                    29.004603005     35385.52387                            ;
 OU8r                    24.792074105    19376.850747                            ;
 Zz0u                    35.531279879    37035.531949                            ;
 OUz8                    29.643881995     48142.19465                            ;
 GJbp                     25.12612119     10799.29079                            ;
 aA1M                    36.504656234     16269.26455                            ;
 7dQB                    20.850227324    29318.300178                            ;
 67Vx                    36.604484205    33788.850958                            ;
 KOLX                    38.478016751     49308.29449                            ;
 BLj2                    28.599230571    49646.754268                            ;
 MB3U                    32.625890394    45018.931736                            ;
 bxE7                    23.516597526    24984.649377                            ;
 q3ax                    26.723688534    33902.022329                            ;
 DtG2                    25.283672203     20055.78582                            ;
 5br1                    26.129762621    17403.172023                            ;
 kDyx                    26.756805678    47915.646726                            ;
 AncS                    28.938128888    42631.333539                            ;
 UVlh                    25.780252792     24156.91578                            ;
 9X81                    25.889721153    22678.970856                            ;
 S4og                    30.485995649    16649.606649                            ;
 LrTB                    23.941068597    10844.597713                            ;
 kDRL                    34.061750444    33457.656336                            ;
 mf1q                    24.079571379    44410.025413                            ;
 bxLI                    31.944241105    23173.333122                            ;
 I6Uj                    34.886489992    30117.850272                            ;
 Hgir                     37.23491949    10088.933292                            ;
 9XwS                    21.071957563    49226.542297                            ;
 7dQe                    28.216826759     37187.91008                            ;
 I6Bj                    33.709706796    31368.687868                            ;
 zlCx                    26.569688154    35563.263998                            ;
 xFke                    23.218015295    29356.350029                            ;
 0CWT                     33.30832706     46913.47966                            ;
 mfCV                    20.201849538    41864.202189                            ;
 67x4                    30.395691864    18120.527801                            ;
 NHSh                    33.586094193    37272.661003                            ;
 owTe                    25.591204854    36440.871623                            ;
 RIOB                    23.266638864    46165.545847                            ;
 c1U9                    23.037658485    11173.383232                            ;
 CcsU                    38.555945955    29517.462992                            ;
 4Wws                    32.718031008    39209.388366                            ;
 eGIQ                    32.167623012    19681.074325                            ;
 dMsO                     28.93543978    27166.326004                            ;
 iKY2                    34.115627915    42469.562891                            ;
 AnMb                    21.609415767    26012.381728                            ;
 uSdA                    21.779131278    44962.406735                            ;
 c1hM                    38.122909124    29913.920943                            ;
 5br9                    37.504658558    28509.140633                            ;
 iKBE                    39.463185797    33220.328948                            ;
 bxsn                    32.605081134    21060.943868                            ;
 eG4Y                    31.532018393    46298.169572                            ;
 MB3O                    20.110843282    10334.196261                            ;
 DtID                    28.816984868    16245.998793                            ;
 shY4                    34.070357481    21726.619615                            ;
 4Wdi                    35.064313803    12277.361645                            ;
 c1U3                    30.558089668    36422.044334                            ;