[TITLE]

[JUNCTIONS]
;ID                      Elevation       Demand Pattern                 
 1670475                 38.998982488               0                            ;
 310106                  29.935122551               0                            ;
 324819                  37.813644954               0                            ;
 65727                   36.368303012               0                            ;
 1298558                 35.093032272               0                            ;
 324349                  26.513237383               0                            ;
 1671737                 25.197078775               0                            ;
 1298198                  21.11664629               0                            ;
 1298066                 28.634470094               0                            ;
 1774951                 24.309561546               0                            ;
 17328                   34.565724636               0                            ;
 1719198                 37.935181643               0                            ;
 1308968                 37.264067644               0                            ;
 1317319                 29.058834968               0                            ;
 442235                  30.541821664               0                            ;
 1313114                 21.244424776               0                            ;
 181609                  31.372414902               0                            ;
 1523659                 34.591499257               0                            ;
 1647048                 30.906355488               0                            ;
 325176                   21.30403719               0                            ;
 1673926                 21.101571198               0                            ;
 1778169                 28.254112256               0                            ;
 1294571                 36.558940194               0                            ;
 1297727                 26.479291701               0                            ;
 1306212                 25.942398629               0                            ;
 1316001                 35.451882316               0                            ;
 1424739                 28.227308962               0                            ;
 1743679                 24.569922283               0                            ;
 325311                  32.777942705               0                            ;
 70178                   27.995771926               0                            ;
 1298525                 27.320767948               0                            ;
 1719459                  32.15956048               0                            ;
 1297042                 26.742976285               0                            ;
 1294564                  36.05074488               0                            ;
 185289                  37.176300415               0                            ;
 1719071                 26.135838894               0                            ;
 1307425                 33.310198754               0                            ;
 323544                  33.757747649               0                            ;
 1770787                 29.230995583               0                            ;
 1778143                  23.65326474               0                            ;
 1667733                  25.94991273               0                            ;
 1300459                 20.655106844               0                            ;
 1248073                 21.326655166               0                            ;
 1762372                 27.215224571               0                            ;
 1783802                 35.984072813               0                            ;
 1307125                 30.443204065               0                            ;
 324788                   20.38201309               0                            ;
 1310218                 25.751258166               0                            ;
 594751                  32.169749083               0                            ;
 1458600                 39.853477401               0                            ;
 1303008                 36.250685239               0                            ;
 1768371                 22.729149013               0                            ;
 1649381                 24.374736852               0                            ;
 310599                   31.26711404               0                            ;
 1740016                  39.13389448               0                            ;
 1294647                 29.564872033               0                            ;
 1313245                 37.856910805               0                            ;
 311738                    26.2882276               0                            ;
 325115                  37.469110986               0                            ;
 163369                  30.571075137               0                            ;
 1298231                 27.642942881               0                            ;
 1768064                 23.440203334               0                            ;
 129636                  35.214922681               0                            ;
 1554656                 27.172400383               0                            ;
 608838                  25.569471314               0                            ;
 129631                  30.814644633               0                            ;
 1318577                 23.960452056               0                            ;
 1653736                 32.113771989               0                            ;
 1523666                 35.725630027               0                            ;
 1306992                 35.477180574               0                            ;
 1300068                 27.175644337               0                            ;
 1104672                 25.749893725               0                            ;
 1297321                  23.94817212               0                            ;
 1454426                 28.978215375               0                            ;
 71412                   23.288815826               0                            ;
 142202                  38.244741163               0                            ;
 1315237                 30.386610149               0                            ;
 1647332                 38.592773517               0                            ;
 1743699                 38.774543684               0                            ;
 324040                  30.290512151               0                            ;
 1778109                 24.974469785               0                            ;
 1305197                 24.160066325               0                            ;
 1740051                 34.149302777               0                            ;
 1747602                 33.673266094               0                            ;
 1298507                 22.295433262               0                            ;
 1297715                 37.527052887               0                            ;
 1298368                 30.077708092    24006.209114 daily_pattern_1298368      ;
 1671040                 24.007892281               0                            ;
 1306213                 27.275850543               0                            ;
 310933                  34.327458239               0                            ;
 1653737                 21.697214632               0                            ;
 65726                    31.71315395               0                            ;
 1313548                 31.920984865               0                            ;
 1666143                 22.071204181               0                            ;
 1650030                 25.527431602    12550.232526 daily_pattern_1650030      ;
 1655443                 27.192881553               0                            ;
 1115564                 35.493360815               0                            ;
 1245198                  39.90395494               0                            ;
 170380                  22.657380818               0                            ;
 1296255                 31.718566486               0                            ;
 323432                  36.030260425               0                            ;
 937939                  28.272685481               0                            ;
 1670221                 36.861918838               0                            ;
 130460                  33.621805494               0                            ;
 70180                   34.451546708               0                            ;
 76892                   36.482437258               0                            ;
 1309449                 25.830618263               0                            ;
 323940                   28.25242713               0                            ;
 1748093                  39.50672255               0                            ;
 1743672                 37.683388826               0                            ;
 162396                  34.397922294               0                            ;
 1195145                   20.3676014               0                            ;
 1245157                  32.42687112               0                            ;
 1317015                 20.834325721               0                            ;
 1215896                 26.044503067               0                            ;
 1649378                 38.892219684               0                            ;
 1678481                 22.296817129               0                            ;
 1299559                  30.35293284               0                            ;
 1769677                 24.145994322               0                            ;
 438316                  22.589511191               0                            ;
 1246814                 23.977874471               0                            ;
 1670483                 36.991867989               0                            ;
 323954                  36.763322584               0                            ;
 535294                  25.393943005               0                            ;
 1461089                 36.967313851               0                            ;
 1298950                 25.019813817               0                            ;
 146399                  25.200412356               0                            ;
 1304311                  37.75205432               0                            ;
 1780496                 24.048596362               0                            ;
 1179468                 26.635535078               0                            ;
 1116575                  20.72498928               0                            ;
 262039                  36.809329996               0                            ;
 1647677                 36.967151881               0                            ;
 1673098                 25.489238396               0                            ;
 1296379                 22.847600729               0                            ;
 128851                  24.252473036               0                            ;
 324358                  27.490106274               0                            ;
 181803                  33.282367168               0                            ;
 1296703                 20.643789003               0                            ;
 1669846                  28.97122981               0                            ;
 202563                  35.104037896               0                            ;
 324203                    36.4059133               0                            ;
 1717298                 35.472761852               0                            ;
 1305079                 30.298966324               0                            ;
 1294199                 24.951650027               0                            ;
 324479                  28.632898912               0                            ;
 1308954                 21.572865638    15136.772466 daily_pattern_1308954      ;
 1717281                 20.424822309               0                            ;
 1678370                 29.385813079               0                            ;
 336307                  26.675604854               0                            ;
 126986                  20.044894276               0                            ;
 534775                  32.721033191               0                            ;
 1297251                  20.16953235               0                            ;
 1742203                 30.915512141               0                            ;
 340962                  21.892900426               0                            ;
 324496                  24.042260713               0                            ;
 1309490                 30.660978058               0                            ;
 1671830                 30.659578732               0                            ;
 181614                  26.061522066    16359.944918 daily_pattern_181614       ;
 1740056                 22.152608161               0                            ;
 1295232                 39.553907063               0                            ;
 1744773                  33.77267951               0                            ;
 324364                   37.90816328               0                            ;
 709667                  32.785054608               0                            ;
 149677                  28.657492774               0                            ;
 1296979                 34.875245954               0                            ;
 1296055                  28.07489215               0                            ;
 1309445                 26.586521272               0                            ;
 1319732                 29.308504675               0                            ;
 1670227                 20.308031477               0                            ;
 1304318                 38.526355118               0                            ;
 129846                  21.517856696               0                            ;
 1297527                 20.703603706               0                            ;
 1678383                 33.447843694               0                            ;
 1778154                 36.500214833               0                            ;
 324371                  39.260950808    33228.669213 daily_pattern_324371       ;
 309948                  26.818479023               0                            ;
 363300                  25.952179517               0                            ;
 1761921                 39.277724872               0                            ;
 1296852                  35.30265533               0                            ;
 1678665                 38.645152832               0                            ;
 46248                   38.342600386               0                            ;
 1297057                 35.432777886               0                            ;
 1295226                 34.827158844               0                            ;
 443548                  25.874503972               0                            ;
 1297888                 30.540137065               0                            ;
 1296677                  26.30357833               0                            ;
 1299608                 32.205865854    35343.797098 daily_pattern_1299608      ;
 1296371                 28.206467779               0                            ;
 1127677                 22.586334232               0                            ;
 324924                  37.191772084               0                            ;
 1304909                  23.75944497               0                            ;
 1740028                 32.713163314               0                            ;
 1245174                 29.048429005               0                            ;
 142209                   35.40600277               0                            ;
 1298236                 21.526771347               0                            ;
 1454440                 30.154366045               0                            ;
 455129                  35.470675913               0                            ;
 324209                  39.174579228               0                            ;
 1740087                 25.472697348               0                            ;
 1649980                 20.503064592               0                            ;
 1760908                 31.541239731               0                            ;
 1305193                 39.364364523    16070.416513 daily_pattern_1305193      ;
 288948                  36.300441796               0                            ;
 1770198                  38.62538216               0                            ;
 1298237                 32.912649838               0                            ;
 323474                  28.006570294               0                            ;
 825242                  24.815648211               0                            ;
 411696                  25.189950918               0                            ;
 1316994                 20.131608786               0                            ;
 1307917                 20.371250509               0                            ;
 325086                  37.576949858               0                            ;
 1667730                 37.755302971               0                            ;
 443203                  20.253404524               0                            ;
 271284                  26.174432082               0                            ;
 346089                   30.99688675               0                            ;
 207414                    30.0696222               0                            ;
 1182278                  36.60637167               0                            ;
 323342                  26.407256102               0                            ;
 1294930                 35.672242458               0                            ;
 1297618                 38.924971801               0                            ;
 290650                  32.472818908               0                            ;
 608847                  28.522666552               0                            ;
 310125                  38.299903289               0                            ;
 1312260                 26.538978238               0                            ;
 1781486                 28.397388563               0                            ;
 1744769                 37.583667723               0                            ;
 1743680                 27.790253095               0                            ;
 1738653                 31.667093698               0                            ;
 1743642                 38.550261853               0                            ;
 1299592                  21.90778026               0                            ;
 342678                  35.831390097               0                            ;
 1244811                 24.774424503               0                            ;
 1767764                 37.101593958               0                            ;
 1304693                 21.636097412               0                            ;
 1310230                 21.949645092               0                            ;
 1653595                 36.122687504               0                            ;
 1743656                 32.549090791               0                            ;
 1315291                 23.405776626               0                            ;
 1300442                 32.089402875               0                            ;
 410053                  38.992547528               0                            ;
 1296185                 31.858476896               0                            ;
 161539                  32.341602437               0                            ;
 65712                   36.290329248               0                            ;
 1294821                 33.402809534               0                            ;
 182079                  32.057308991    13981.892773 daily_pattern_182079       ;
 1056734                 22.175072967               0                            ;
 1678961                 21.104786682               0                            ;
 142200                  23.060348733               0                            ;
 325425                  23.155311962    36960.149973 daily_pattern_325425       ;
 129152                   29.40996596               0                            ;
 1669868                  32.59297804               0                            ;
 1752280                   35.8279628               0                            ;
 1635289                 32.074899064               0                            ;
 427731                  38.408307779               0                            ;
 1315651                 38.597854622               0                            ;
 1297354                 25.563053896               0                            ;
 1675333                 31.356153016               0                            ;
 323586                  29.981389097               0                            ;
 129849                  36.044476435               0                            ;
 1778183                 37.073947697               0                            ;
 324976                   31.83837622               0                            ;
 325135                  36.587393695               0                            ;
 1296983                 29.918200649               0                            ;
 1297038                 21.900397274               0                            ;
 683546                  36.645121317               0                            ;
 1769685                 29.041335719               0                            ;
 1673268                 37.843878077               0                            ;
 188075                   35.29290105               0                            ;
 1678966                 36.886742591               0                            ;
 1307784                 27.211545347               0                            ;
 1739984                 26.166619311               0                            ;
 1519472                 28.083362723               0                            ;
 1303326                 21.350181444               0                            ;
 1298241                 31.924090388               0                            ;
 323817                  23.309776055    33879.393857 daily_pattern_323817       ;
 439640                    27.7810794               0                            ;
 1717548                 39.455634435               0                            ;
 324378                  22.494597409    19533.544159 daily_pattern_324378       ;
 1650940                 26.190326606               0                            ;
 76901                   36.845824629               0                            ;
 347392                  31.359850587               0                            ;
 266237                  37.941113377               0                            ;
 1678425                 25.598867954               0                            ;
 1770199                 28.489764425               0                            ;
 1628310                 36.467279384               0                            ;
 1318839                 39.025772506               0                            ;
 1769726                  23.98454071               0                            ;
 1649616                 26.249759335               0                            ;
 70177                   32.435572231               0                            ;
 433100                  23.602036539               0                            ;
 1245173                 31.042797045               0                            ;
 1307003                 31.245303978               0                            ;
 1678985                 31.847935574               0                            ;
 201046                  35.108679315               0                            ;
 1465232                 30.060727346               0                            ;
 1244828                 30.482143434               0                            ;
 343992                  27.558535637               0                            ;
 1678424                 37.933649218               0                            ;
 1298513                 21.868359569               0                            ;
 709651                  25.139744686               0                            ;
 1650586                 39.906552323               0                            ;
 1298079                 25.302636705               0                            ;
 324974                   39.49330176               0                            ;
 1742218                 23.532945353               0                            ;
 1294947                  25.84410258               0                            ;
 1245200                 29.741815978               0                            ;
 461422                  23.772714888               0                            ;
 1350067                 28.826298856               0                            ;
 1317316                 23.061838173               0                            ;
 287275                  37.613318511               0                            ;
 144464                  32.555900546               0                            ;
 1295866                 21.133075913               0                            ;
 1737023                 29.795591271               0                            ;
 1305404                 23.845762375               0                            ;
 126983                  22.042324815               0                            ;
 170385                  36.337503312               0                            ;
 130451                  20.941421502               0                            ;
 323317                  30.774563602               0                            ;
 1224101                 37.384769818               0                            ;
 1737027                 26.043775109               0                            ;
 1678065                 23.917889944               0                            ;
 1299458                 29.996540153               0                            ;
 316392                  26.962857349               0                            ;
 1418967                 30.512017945               0                            ;
 325420                  31.414376147               0                            ;
 1316006                 30.359039272               0                            ;
 1296734                 27.006942156               0                            ;
 1738633                 37.593096063               0                            ;
 1296309                 35.346368807               0                            ;
 1296626                 25.090016088               0                            ;
 441925                  23.015758051               0                            ;
 1523668                   35.3643461               0                            ;
 1670788                  21.02623296               0                            ;
 1774965                 35.152064365               0                            ;
 293593                  27.031264281               0                            ;
 324829                  36.969386762    18609.727993 daily_pattern_324829       ;
 1312251                 39.091604017               0                            ;
 1295953                  29.85455987               0                            ;
 1774967                 28.936947208               0                            ;
 1296806                 25.618681317               0                            ;
 323837                   39.04548361               0                            ;
 1296099                 32.806944665               0                            ;
 1298796                 22.925340538               0                            ;
 1671827                 34.686869515               0                            ;
 1309748                 28.931013356               0                            ;
 65643                   23.186843695               0                            ;
 709654                  26.808087944               0                            ;
 1297580                 22.569057276               0                            ;
 1296172                 38.618513137               0                            ;
 1309682                 31.357902498               0                            ;
 1669841                 27.373192765               0                            ;
 1669479                 38.930265366               0                            ;
 1297300                 37.949828272               0                            ;
 1623316                 30.711193686               0                            ;
 438330                  24.999696034               0                            ;
 1678700                 32.524227316               0                            ;
 1296262                 30.060367789               0                            ;
 325421                  20.599105148    17469.791201 daily_pattern_325421       ;
 324922                  21.936501153               0                            ;