[TITLE]

[JUNCTIONS]
;ID                      Elevation       Demand Pattern                 
 1306523                 36.685347281               0                            ;
 557817                  36.689382696               0                            ;
 1300570                 25.945219757               0                            ;
 1300569                 35.783987922               0                            ;
 559682                  33.390219355               0                            ;
 1304309                 24.932456508               0                            ;
 1300158                 26.295254001               0                            ;
 1732831                 20.418377736               0                            ;
 831699                  39.154242472               0                            ;
 1775191                 35.137628037               0                            ;
 1301859                 25.387788536               0                            ;
 1305624                 29.734255222               0                            ;
 844166                  22.400258598               0                            ;
 1549003                 27.321735844               0                            ;
 1247341                 31.513537617               0                            ;
 557811                  20.581929954               0                            ;
 536511                  28.902842187               0                            ;
 1304206                 24.643240867               0                            ;
 395996                  38.770086073               0                            ;
 567616                  34.376511275               0                            ;
 1303754                 21.598252314               0                            ;
 555814                  20.921892008               0                            ;
 465788                  31.634762948               0                            ;
 1247351                 30.286050613               0                            ;
 844172                  31.649271746               0                            ;
 1435246                 25.042123962               0                            ;
 1304303                 39.920652427               0                            ;
 536090                   22.83183103               0                            ;
 1435247                 25.609413261               0                            ;
 1298669                 29.276886077               0                            ;
 1408054                 38.545765262               0                            ;
 1247358                  28.68617294               0                            ;
 1111165                 31.051219461               0                            ;
 1247336                 24.075186881               0                            ;
 554998                  24.780221043               0                            ;
 1298164                 30.776537107               0                            ;
 1574027                 20.220003338               0                            ;
 834955                  28.366197614               0                            ;
 843950                  28.426471815               0                            ;
 1732832                 34.104369504               0                            ;
 1303711                 26.256047204               0                            ;
 1303709                 26.445063898               0                            ;
 931668                  35.641984387               0                            ;
 837251                   37.06006625               0                            ;
 1732554                   29.7348043               0                            ;
 1247359                 23.869337871               0                            ;
 1300250                 35.817792188               0                            ;
 556453                   32.87042784               0                            ;
 565656                  35.655438529               0                            ;
 36493                   31.651279787               0                            ;
 333106                  20.927701127               0                            ;
 1732551                 34.667322247               0                            ;
 555378                  24.795713064               0                            ;
 971518                  26.326117705               0                            ;
 1304306                 26.184977866               0                            ;
 1304107                 22.141823325               0                            ;
 1298162                 24.431929423               0                            ;
 1443882                 31.502420135               0                            ;
 834957                   29.93312476               0                            ;
 1646199                 20.045243416               0                            ;
 829857                   35.43027553               0                            ;
 843946                  27.069379956               0                            ;
 37447                    27.18834987               0                            ;
 350142                  37.873382815               0                            ;
 1305616                 20.673749396               0                            ;
 1303710                 30.997548988               0                            ;
 1304113                 26.386998242               0                            ;
 554493                  20.181006174               0                            ;
 1305612                 21.181510722               0                            ;
 1304304                 27.185113245               0                            ;
 534136                  23.131950835               0                            ;
 1732550                 32.046323079               0                            ;
 1304201                 27.057189839               0                            ;
 1352918                 30.725117073               0                            ;
 1298672                 25.858937614               0                            ;
 1304109                 31.141432814               0                            ;
 1732549                 28.528403357               0                            ;
 1298661                 29.380461655               0                            ;
 1304112                 33.885202407               0                            ;
 1112455                  25.20280915               0                            ;
 1300563                 34.412654106               0                            ;
 843941                  25.841917607               0                            ;
 1298394                 24.222840151               0                            ;
 1357098                 20.658768291               0                            ;
 1298668                 27.100787557               0                            ;
 837252                   29.47609416               0                            ;
 1732556                 29.301960973               0                            ;
 829858                   30.06669028               0                            ;
 1301214                 39.302470979               0                            ;
 1550413                 38.767094264               0                            ;
 1304215                 28.719001734               0                            ;
 833783                  27.042311568               0                            ;
 560086                  23.168048214               0                            ;
 554995                  24.108741532               0                            ;
 1406306                 28.759614377               0                            ;
 1294374                 29.891991748               0                            ;
 556450                  23.218427548               0                            ;
 1306543                 29.730373589               0                            ;
 1732552                 27.080404126               0                            ;
 166764                  39.050407695               0                            ;
 1001314                 31.761233418               0                            ;
 1552073                 31.752072435               0                            ;
 1247349                 37.076829778               0                            ;
 166774                  24.153802298               0                            ;
 558090                  33.759611162               0                            ;
 1352917                 37.049563243               0                            ;
 554837                  34.389987148               0                            ;
 567617                  27.706308162               0                            ;
 1111151                 32.967556466               0                            ;
 1432678                 31.031654137               0                            ;
 536089                  36.126161386               0                            ;
 1001315                 29.266007337               0                            ;
 971514                  37.516422973               0                            ;
 1304994                 25.399921697               0                            ;
 1304307                 38.183537974               0                            ;
 1732566                 22.326848254               0                            ;
 1304106                  24.55967245               0                            ;
 1119929                 20.672700395               0                            ;
 465782                  23.639994839               0                            ;
 1574032                  21.50883548               0                            ;
 556819                  39.439981661               0                            ;
 1552071                 20.851162926               0                            ;
 560099                  36.293625588               0                            ;
 1732812                 24.807368622               0                            ;
 1298163                   39.9531825               0                            ;
 1001316                 32.016820629               0                            ;
 1732309                 22.271559209               0                            ;
 837748                  38.695406523               0                            ;
 333109                  32.749474744               0                            ;
 465778                  35.637757666               0                            ;
 1001300                 36.060843124               0                            ;
 1304111                  21.88496564               0                            ;
 1305623                 30.762274565               0                            ;
 556818                  36.486612282               0                            ;
 1111164                 34.940978013               0                            ;
 1537911                 38.529565932               0                            ;
 1432685                 27.870609197               0                            ;
 1732830                 27.363402766               0                            ;
 1432677                 28.396352908               0                            ;
 1431020                   24.8580865               0                            ;
 833784                  25.373549028               0                            ;
 1432675                  33.90144421               0                            ;
 554994                  28.052942535               0                            ;
 1537902                 20.377367258               0                            ;
 1356768                 38.367982637               0                            ;
 1431021                 21.138848431               0                            ;
 556821                  21.200535432               0                            ;
 831695                  38.702321687               0                            ;
 1305613                 35.445159891               0                            ;
 44495                   27.915575161    11334.992867 daily_pattern_44495        ;
 554497                  36.365509158               0                            ;
 567615                  29.708577098               0                            ;
 1298395                 24.543420132               0                            ;
 1299246                   27.4456093               0                            ;
 1111166                 26.835647821               0                            ;
 1732310                 28.144068235               0                            ;
 1771237                 31.733657204               0                            ;
 1732833                 30.720755489               0                            ;
 1775179                 30.333962354               0                            ;
 1552052                 23.731454502               0                            ;
 1298443                 28.633441193               0                            ;
 1549002                 21.984474436               0                            ;
 1298662                 25.437653219    29324.383031 daily_pattern_1298662      ;
 1548998                 39.586142507               0                            ;
 333108                  21.963368268    17058.283295 daily_pattern_333108       ;
 1431022                 39.722100576               0                            ;
 555813                  22.499777664               0                            ;
 1550414                  24.18135316               0                            ;
 1300261                 26.752706534               0                            ;
 1551810                 28.051512147               0                            ;
 1300157                 36.671557298               0                            ;
 565678                  39.001504872               0                            ;
 1301549                 29.281253736               0                            ;
 1303761                 24.033698129               0                            ;
 557809                  20.270193704               0                            ;
 1300562                  28.15652106               0                            ;
 558092                  22.276717299               0                            ;
 555377                  28.579219497               0                            ;
 1301353                 20.424289771               0                            ;
 395995                   24.61244792               0                            ;
 560196                  32.135584212               0                            ;
 1357089                 29.489624468               0                            ;
 1431017                 32.326570442               0                            ;
 1300248                 22.555634059               0                            ;
 554867                  34.326611536               0                            ;
 1468180                 20.085488508               0                            ;
 1552070                 22.108248991               0                            ;
 1732818                 31.315332686               0                            ;
 1299882                 34.302794474               0                            ;
 556809                  39.596236089               0                            ;
 565156                  29.165377449               0                            ;
 556812                   22.78385887               0                            ;
 395994                  30.095116577               0                            ;
 166775                  37.779467654               0                            ;
 558091                  35.244266513               0                            ;
 1357097                 28.386662222               0                            ;
 555358                  24.700821075               0                            ;
 1732557                 30.234516963               0                            ;
 567619                  29.276439054               0                            ;
 1300594                  23.12436764               0                            ;
 166759                  29.211186909               0                            ;
 1304760                 32.636816172               0                            ;
 1775218                 22.205671141               0                            ;
 1112456                 30.355712248               0                            ;
 1247357                 20.099808466               0                            ;
 554505                  39.419830614               0                            ;
 1304305                 21.208761748               0                            ;
 1299883                 38.588993819               0                            ;
 556820                  26.272157475               0                            ;
 831476                  37.944959159               0                            ;
 1575041                 32.438203765               0                            ;
 1550405                 36.541412965               0                            ;
 1432676                 24.026247329    45297.063591 daily_pattern_1432676      ;
 1303713                  37.22589661               0                            ;
 558088                  27.433819966               0                            ;
 395997                  23.911942088               0                            ;
 554987                  35.622596642               0                            ;
 1298176                  39.35250579               0                            ;
 555369                  30.293014215               0                            ;
 36494                   20.794327739               0                            ;
 831700                  27.060304526               0                            ;
 971515                  24.934397615               0                            ;
 833786                  22.781329617               0                            ;
 554838                  22.018503206               0                            ;
 554495                  23.328407073               0                            ;
 1351989                 30.344267187               0                            ;
 465780                  33.459588621               0                            ;
 396007                  38.669273816               0                            ;
 844165                  34.819863721               0                            ;
 843934                  27.637372724               0                            ;
 1247335                 37.672047648               0                            ;
 1548993                 37.546436871               0                            ;
 843942                  26.294433004               0                            ;
 1304995                 36.430902322               0                            ;
 555380                  32.507437017               0                            ;
 1247356                 22.849418143               0                            ;
 834968                  25.999200154               0                            ;
 465779                  29.111764123               0                            ;
 1431018                 27.658393877               0                            ;
 1304220                 34.404235828               0                            ;
 536088                  34.848320442               0                            ;
 560087                  33.386554472               0                            ;
 1111150                 39.384382131               0                            ;
 1308161                 37.047325483               0                            ;
 565680                  35.285498794               0                            ;
 843943                  35.087213007               0                            ;
 1551811                  29.02993249               0                            ;
 837746                  28.339667748               0                            ;
 1301548                 22.061410509               0                            ;
 37446                   38.623573565               0                            ;
 1732565                 28.771107663               0                            ;
 1537912                 26.806786298               0                            ;
 971517                  35.664192052               0                            ;
 837754                  34.119979024               0                            ;
 833785                  36.137694165               0                            ;
 1304202                 24.951588155               0                            ;
 1732555                 22.871686325               0                            ;
 554986                  20.973045265               0                            ;
 1296789                 28.175437136               0                            ;
 1303762                 20.870219026               0                            ;
 1298406                 28.882615264               0                            ;
 843945                  38.460050573               0                            ;
 565657                  34.545214264               0                            ;
 555368                  21.926275516               0                            ;
 350143                  26.764854437               0                            ;
 1302809                  33.65331956               0                            ;
 1247344                 35.943330727               0                            ;
 560195                  35.254623648               0                            ;
 1432674                 32.621563232               0                            ;
 396009                  37.369322844               0                            ;
 558089                   30.54559737               0                            ;
 565679                  33.690503015               0                            ;
 555379                  32.809887762               0                            ;
 831692                  37.260108384               0                            ;
 1734506                 35.111065468               0                            ;
 837755                    26.5158828               0                            ;
 1247339                 29.564351121               0                            ;
 1304216                 25.948705081               0                            ;
 1304214                 26.982606985               0                            ;
 556451                  33.931843345               0                            ;
 1552069                  23.55080769               0                            ;
 1431019                 33.587757513               0                            ;
 931670                  39.142780792               0                            ;
 477827                  23.811390498               0                            ;
 567618                  23.991831324               0                            ;
 1300247                 21.525805943               0                            ;
 931669                  23.088987442               0                            ;
 1303368                 23.961607067               0                            ;
 843933                  26.120480625               0                            ;
 1436129                 32.717181289               0                            ;
 556813                  36.036582085               0                            ;
 556084                  29.114538077               0                            ;
 1732558                 28.704387849               0                            ;
 166760                  27.334402885               0                            ;
 558093                  30.577148439               0                            ;
 1732308                 30.846043461               0                            ;
 1732825                 26.034293383               0                            ;
 1775213                 21.950392602               0                            ;
 1732811                 38.239774158               0                            ;
 1111163                 24.581826319               0                            ;
 837747                  37.718146102               0                            ;
 1300561                 22.098879381               0                            ;
 1323489                 39.113619466               0                            ;
 1754285                 21.702537816               0                            ;
 831691                  37.051405812               0                            ;
 554496                  22.710185729               0                            ;
 1732821                 35.761280488               0                            ;
 1304207                 37.775719799               0                            ;
 554494                  39.853255285               0                            ;
 554993                  30.742056414               0                            ;
 1304110                 34.708434179               0                            ;
 555375                  35.891473703               0                            ;
 1352926                 28.375287925               0                            ;
 1306545                 27.865429365               0                            ;
 1468178                 33.614144129               0                            ;
 1305621                 32.622884786               0                            ;
 1548992                 33.770266642               0                            ;
 988476                  30.222215896               0                            ;
 831694                  31.885321236               0                            ;
 1304108                 31.640178433               0                            ;
 829856                  35.695099912               0                            ;
 1303757                 37.048936036               0                            ;
 555374                   26.33672047               0                            ;
 1732829                 31.149231133               0                            ;
 1306542                 20.391706309               0                            ;
 1303760                 21.868780939               0                            ;
 1301352                  27.85239277               0                            ;
 1300567                 31.917497425               0                            ;
 1574028                 38.564069044               0                            ;
 556085                  23.647746777               0                            ;
 1301553                 27.519339467               0                            ;
 1303755                 29.106996614               0                            ;
 1298671                 35.027907194               0                            ;
 555376                  23.618278918               0                            ;
 1303756                 37.846233831               0                            ;
 1303712                 35.647143712               0                            ;
 1756790                 37.390088321               0                            ;
 1300568                 22.384916644               0                            ;
 1356764                 38.509217286               0                            ;
 1301554                 24.850448542               0                            ;
 1775186                 37.729177637               0                            ;
 557808                  39.214916461               0                            ;
 1300246                 22.818610536               0                            ;
 1552046                 28.235502753               0                            ;
 1247340                 39.980808306               0                            ;
 556817                  21.737254695               0                            ;
 1303763                 39.704051535               0                            ;
 831475                  30.184903439               0                            ;
 1548991                  32.50484639               0                            ;
 1298442                 32.953702236               0                            ;
 834969                   31.81053346               0                            ;
 1732311                 33.938681358               0                            ;
 534137                  23.874869301               0                            ;
 536091                  36.743991902               0                            ;
 556810                  32.692039422               0                            ;
 1304758                 22.840386313               0                            ;
 1306608                  35.33581824               0                            ;
 1300159                 30.880143749               0                            ;
 166765                  22.842615984               0                            ;
 1304308                 31.625425789               0                            ;