[TITLE]

[JUNCTIONS]
;ID                      Elevation       Demand Pattern                 
 1302975                 24.269917061               0                            ;
 170396                  23.117791667               0                            ;
 1056728                 37.782866021               0                            ;
 1300533                 23.263750149               0                            ;
 1522406                  33.19794744               0                            ;
 1678368                 39.643629699               0                            ;
 1742225                 22.409598585               0                            ;
 323979                    20.0070773               0                            ;
 129642                  36.198312705               0                            ;
 1310214                 36.937164833               0                            ;
 1671738                 31.814509757               0                            ;
 433103                  38.204565423               0                            ;
 1295974                  21.03922953               0                            ;
 142212                  27.437910863               0                            ;
 1294623                 27.370780418               0                            ;
 310095                  28.782041723               0                            ;
 126989                  27.380468361               0                            ;
 474785                  28.260450546               0                            ;
 1778105                 35.836195553               0                            ;
 408887                  32.983805419               0                            ;
 324028                  26.802040457               0                            ;
 323310                  32.381134752               0                            ;
 743205                  21.577459323               0                            ;
 1623323                 28.770244899               0                            ;
 421574                  33.144028387               0                            ;
 325117                   30.79869875               0                            ;
 1245172                 22.883793391               0                            ;
 1305489                 27.691536436               0                            ;
 1649980                 30.889641027               0                            ;
 1628302                 29.251166955               0                            ;
 310073                  25.657097272               0                            ;
 1297248                 30.119168774               0                            ;
 1297303                 21.513144347               0                            ;
 325112                  23.757264283               0                            ;
 1723419                 28.225028565               0                            ;
 461422                  24.052138887               0                            ;
 1312246                 35.227193279               0                            ;
 325143                  31.441375246               0                            ;
 1245515                 37.155885309               0                            ;
 324818                  33.141240463               0                            ;
 419167                  36.465179983               0                            ;
 1307919                 34.000417057               0                            ;
 1628310                   38.4578019               0                            ;
 865984                  39.142248332    42198.116072 daily_pattern_865984       ;
 1317659                 25.730303616               0                            ;
 1717529                 21.076287105               0                            ;
 1095520                 32.927680544               0                            ;
 1418172                 32.264614101               0                            ;
 1765092                 25.440754395               0                            ;
 1307903                 33.159582226    25220.318301 daily_pattern_1307903      ;
 1213565                   37.8552376               0                            ;
 1309487                 26.299169565               0                            ;
 433098                  23.297894469               0                            ;
 324205                  22.065094162               0                            ;
 1306211                 21.103813509               0                            ;
 324352                  38.858555819               0                            ;
 1736449                 37.910025652               0                            ;
 1116570                 21.215266182               0                            ;
 1671301                 29.032460058               0                            ;
 126324                  33.260852439               0                            ;
 285927                  20.619514804               0                            ;
 34986                   37.354486192               0                            ;
 1103569                 27.057172756               0                            ;
 1297347                 31.117099286               0                            ;
 1764256                  36.25741211               0                            ;
 262066                  28.187861184               0                            ;
 1315257                 28.246479838               0                            ;
 1319394                 38.922356906               0                            ;
 1830869                 26.069150522               0                            ;
 325415                  37.683102616               0                            ;
 289225                  25.659776774               0                            ;
 1719448                 20.280380408               0                            ;
 1649389                 33.434888345               0                            ;
 826872                  31.378085706               0                            ;
 1778112                 37.782478565               0                            ;
 324072                  30.289065716    44970.981574 daily_pattern_324072       ;
 1311840                 22.004122961               0                            ;
 1318605                 20.585244358               0                            ;
 1769735                 25.298193293               0                            ;
 204675                  29.788812162               0                            ;
 1739982                 29.601292713               0                            ;
 1316509                 21.184567768               0                            ;
 324102                  24.960152485               0                            ;
 1297354                 35.629345503               0                            ;
 1737305                 26.257377027               0                            ;
 1307787                 38.430413514               0                            ;
 1315651                 27.206193378               0                            ;
 1298257                 25.122740547               0                            ;
 1318258                 35.298591877               0                            ;
 323464                  25.069699656               0                            ;
 324197                  21.397120245               0                            ;
 1297705                 31.444295954               0                            ;
 325133                   29.02373841               0                            ;
 324490                  20.122115591               0                            ;
 1309510                 35.894230858               0                            ;
 1179462                 33.615350946               0                            ;
 324944                  21.374914788               0                            ;
 153187                  34.236493227               0                            ;
 1774803                 26.049981895               0                            ;
 1653736                 20.587208474               0                            ;
 1552703                 33.210549646               0                            ;
 613770                  34.501519257               0                            ;
 129121                   20.42052916               0                            ;
 157218                  21.101506572               0                            ;
 1760909                 33.816292126               0                            ;
 1740043                 29.255796318               0                            ;
 1300441                 39.407415249               0                            ;
 1551406                 31.755045709               0                            ;
 1295676                 20.082380822               0                            ;
 127929                  24.498720942               0                            ;
 1215896                 33.183076461               0                            ;
 325169                  38.935325058               0                            ;
 182675                  24.387382277               0                            ;
 1653601                 25.807314311               0                            ;
 264228                  28.904201524               0                            ;
 1295964                 21.865700871    35736.878464 daily_pattern_1295964      ;
 1244452                 36.569392702               0                            ;
 1755441                 34.163116722               0                            ;
 1780608                 25.659248853               0                            ;
 1755456                 35.488706358               0                            ;
 185289                  24.917782211               0                            ;
 1461102                 23.941252238               0                            ;
 1296272                 20.513881311               0                            ;
 1647330                 37.884245719               0                            ;
 1782799                 26.475301762               0                            ;
 1653595                 35.131281231               0                            ;
 126302                  29.504023991               0                            ;
 1678704                 21.809638243               0                            ;
 1297957                 38.240518654               0                            ;
 1302271                 26.077944282               0                            ;
 324942                  39.277106819               0                            ;
 1429077                 32.006655479               0                            ;
 1297888                 32.310212984               0                            ;
 1669855                 37.077981913               0                            ;
 1316691                 26.304665947               0                            ;
 1294952                 26.062283493    35014.500245 daily_pattern_1294952      ;
 128852                  26.464214484               0                            ;
 1717000                 27.973502034               0                            ;
 428623                  35.645902836               0                            ;
 1760442                 33.619527638               0                            ;
 283103                  26.024084544               0                            ;
 1740038                 26.224365716               0                            ;
 142094                  26.886024019               0                            ;
 1294575                  25.24527584               0                            ;
 162547                  24.440178415    29712.667268 daily_pattern_162547       ;
 1769750                 20.289696744               0                            ;
 324655                  23.989137064               0                            ;
 1673418                 30.593976146               0                            ;
 188044                  25.380098468               0                            ;
 1670785                 29.186664753               0                            ;
 324779                  34.381149562    34044.419057 daily_pattern_324779       ;
 323473                  30.952077235               0                            ;
 1781486                  30.27940717               0                            ;
 157240                   35.99054404               0                            ;
 153170                  37.484705312               0                            ;
 325437                  26.790093376               0                            ;
 1769788                 23.603868149               0                            ;
 202574                  27.412708631               0                            ;
 1664454                 36.731381604               0                            ;
 310936                  22.029638319               0                            ;
 1352284                 24.321026586               0                            ;
 1298525                 32.098866322               0                            ;
 311097                  28.694953136               0                            ;
 1671292                 26.429838172               0                            ;
 138717                  32.799636704               0                            ;
 323454                  28.985625405               0                            ;
 1669859                 38.235218093               0                            ;
 142214                  33.314578338               0                            ;
 1716827                 36.482624961               0                            ;
 1295965                 30.353305606               0                            ;
 454858                  31.800364444               0                            ;
 323455                  26.720137153               0                            ;
 578282                  35.042719915               0                            ;
 1296806                 35.463144662               0                            ;
 324645                  32.546938415               0                            ;
 1670178                 38.957391408               0                            ;
 1743649                 37.001993961               0                            ;
 1670789                 39.733154304               0                            ;
 597415                  34.161129158               0                            ;
 126336                  36.271875847               0                            ;
 1294938                  37.12709422               0                            ;
 142086                  23.605405698               0                            ;
 324817                  24.238125558               0                            ;
 1298942                 34.079552308               0                            ;
 1719072                 34.808390241               0                            ;
 1317059                 31.754589376               0                            ;
 1247114                  37.92580604               0                            ;
 348342                  25.354872449               0                            ;
 1245191                 28.247822576               0                            ;
 1314827                  22.03333605               0                            ;
 325167                  32.871715756               0                            ;
 181799                  21.608580459               0                            ;
 1737029                 28.480654392               0                            ;
 1671851                 33.033428721               0                            ;
 1675802                  29.94859031               0                            ;
 1302968                 23.659705472               0                            ;
 433101                  31.228183995               0                            ;
 1301546                 22.777029037               0                            ;
 1000740                 32.749521335               0                            ;
 1324166                 33.490687432               0                            ;
 310089                  25.220388094               0                            ;
 1302936                 20.277285536               0                            ;
 1228061                 36.244642456               0                            ;
 323342                  20.597171112               0                            ;
 262983                  34.234983015               0                            ;
 163367                  29.000723327               0                            ;
 424623                  28.645325355               0                            ;
 1196388                 29.146055348               0                            ;
 1675332                 28.327329458               0                            ;
 1655438                 20.923812269               0                            ;
 323465                  38.402735731               0                            ;
 1768338                 29.170168467               0                            ;
 1307426                 27.057763165               0                            ;
 1298530                 21.131815652               0                            ;
 439398                  23.697095499               0                            ;
 1673277                 27.549750432               0                            ;
 1306993                 36.378790851               0                            ;
 1297253                 21.335802787               0                            ;
 427221                  30.596764794               0                            ;
 1769695                  38.85238442               0                            ;
 1742452                  34.69838661               0                            ;
 1742834                 22.982612232               0                            ;
 1195148                 32.085993091               0                            ;
 1303471                 32.456441775               0                            ;
 1316016                 36.822056285               0                            ;
 439399                  21.680292106               0                            ;
 1623329                 29.896065602               0                            ;
 1670164                 21.869497787               0                            ;
 126304                   28.30183203               0                            ;
 1744722                 38.766484681               0                            ;
 1733092                 28.037087885               0                            ;
 1675670                 35.496634531               0                            ;
 1678388                 35.435973089               0                            ;
 323339                  26.081568165               0                            ;
 1297726                 20.939787464               0                            ;
 162450                   25.78112499               0                            ;
 1297587                 30.522400372               0                            ;
 1778154                  23.77005249               0                            ;
 426201                  37.209601918               0                            ;
 1297717                 36.158115394               0                            ;
 1189727                 24.867282007               0                            ;
 1769688                 32.900236246               0                            ;
 1752283                 20.299236711               0                            ;
 262069                  29.240898076               0                            ;
 1453416                 33.208933294               0                            ;
 73716                   35.269186466               0                            ;
 1761874                 21.139385199               0                            ;
 443552                  24.180563019               0                            ;
 1314823                 33.745544741               0                            ;
 1771605                 29.061092622               0                            ;
 1778082                 37.207850483               0                            ;
 1296710                 30.562706798               0                            ;
 1650584                 31.689733244               0                            ;
 1351393                 20.433190349               0                            ;
 324034                  22.501885535               0                            ;
 1739986                 25.970793756               0                            ;
 1295885                 33.318997978               0                            ;
 1297055                 37.156021499               0                            ;
 1319155                 32.171689348               0                            ;
 1778151                 23.183072361               0                            ;
 323450                  20.153269226    46142.676122 daily_pattern_323450       ;
 1298944                 21.331214856               0                            ;
 142199                  38.851779609               0                            ;
 1723405                 33.711212727               0                            ;
 1297304                 27.636473311               0                            ;
 1771604                 24.741569326               0                            ;
 1302933                 38.716919682               0                            ;
 439392                  36.580447463               0                            ;
 1780441                 30.486154399               0                            ;
 1312244                 20.646327865               0                            ;
 76888                   23.319955759               0                            ;
 441419                  39.478517984               0                            ;
 129650                  29.738518119               0                            ;
 1769685                  21.56520691               0                            ;
 1296270                 24.363036291               0                            ;
 1295865                 39.590163196               0                            ;
 1295944                 36.967644632               0                            ;
 1416329                 37.945703828               0                            ;
 1424728                 30.616302856               0                            ;
 1056732                 27.516919138               0                            ;
 439385                  39.521230515               0                            ;
 293559                  27.999366972    12664.102162 daily_pattern_293559       ;
 310103                  37.370742427               0                            ;
 1297269                 21.502562903               0                            ;
 1666881                 20.029909742               0                            ;
 1295930                 32.701293069               0                            ;
 670825                   30.49881278               0                            ;
 1671284                 20.837784149               0                            ;
 1769694                  31.63587209               0                            ;
 1748094                 21.117977847               0                            ;
 325132                  32.447592095               0                            ;
 1306672                 31.855646072               0                            ;
 325181                  38.834584568               0                            ;
 289636                  24.990062494               0                            ;
 1298557                 29.186368113               0                            ;
 325137                  21.639453216               0                            ;
 147459                  30.144186879               0                            ;
 1661069                  38.57926806               0                            ;
 1746769                 23.138816491               0                            ;
 1780566                 34.580986489               0                            ;
 1116571                 23.300773823               0                            ;
 1317318                 33.245066629               0                            ;
 142096                  30.298702752               0                            ;
 1744707                 31.458361762               0                            ;
 1764262                 23.084101857               0                            ;
 324011                  38.765038965               0                            ;
 1755454                 35.682778626               0                            ;
 1465231                 30.030362064               0                            ;
 1309442                 27.803071302               0                            ;
 413577                  27.803056096               0                            ;
 323457                  36.755864478               0                            ;
 162404                  21.201647599               0                            ;
 1743630                  22.16645264               0                            ;
 1719252                 23.731898432               0                            ;
 324093                  25.993607992               0                            ;
 162452                  39.136510706    32216.359933 daily_pattern_162452       ;
 1647676                 31.742615249               0                            ;
 1746770                 26.458827453               0                            ;
 1313560                 29.367408431               0                            ;
 188324                  29.845950946               0                            ;
 1650275                 26.433737028               0                            ;
 1778087                 37.463596373               0                            ;
 310140                  29.742689506               0                            ;
 323451                  26.442594736    12025.889244 daily_pattern_323451       ;
 1718250                 35.672896351               0                            ;
 1193640                 30.315310133               0                            ;
 323687                  28.382185568               0                            ;
 325283                  30.541604615               0                            ;
 1768367                 32.570860846               0                            ;
 1774952                 23.196496404               0                            ;
 1303158                 22.018750104               0                            ;
 149673                  32.466646311               0                            ;
 325116                  31.081103238               0                            ;
 1317044                 36.337299584               0                            ;
 1740013                 24.373515878               0                            ;
 1762372                 34.670619288               0                            ;
 310595                  24.468809796               0                            ;
 161539                  25.645414152               0                            ;
 1294586                 31.975089086               0                            ;
 1738651                 32.811136925               0                            ;
 1743656                 21.044145659               0                            ;
 454465                  22.421037461               0                            ;
 1723864                 32.806840994               0                            ;
 1297531                 25.222865698               0                            ;
 324969                  21.889571586               0                            ;
 35548                   24.669130191               0                            ;
 1296103                  39.67921122               0                            ;
 323937                  37.296603099               0                            ;
 1302956                 27.847705994               0                            ;
 1309512                 36.386840477               0                            ;
 1764255                 28.038440117               0                            ;
 571996                   32.64611025               0                            ;
 1774804                 38.074985064               0                            ;
 1769684                 32.013601472               0                            ;
 1742434                  28.77285824               0                            ;
 1653738                 34.838008678               0                            ;
 1307772                  25.12635605               0                            ;
 1317671                 36.919896718               0                            ;
 1307125                 20.987858165               0                            ;
 324121                  25.144837881               0                            ;