[TITLE]

[JUNCTIONS]
;ID                      Elevation       Demand Pattern                 
 1760928                  26.53862424               0                            ;
 1760927                   26.1724359               0                            ;
 333778                  30.740232123               0                            ;
 333781                  31.108061982    31775.621495 daily_pattern_333781       ;
 333780                  29.236837888               0                            ;
 5586                    37.696356442               0                            ;
 1760694                 33.579981867               0                            ;
 333777                  39.938546324               0                            ;
 1760695                 39.980924644               0                            ;
 145317                  28.661188012               0                            ;
 1760801                 21.753123583               0                            ;
 1344480                 31.959818879               0                            ;
 1760780                 23.111985493               0                            ;
 1760693                 38.182288979               0                            ;
 1760804                 20.813648514               0                            ;
 1344778                  30.25458202               0                            ;
 333779                   27.61815783               0                            ;
 1760803                 33.993040199               0                            ;
 333769                  33.231217974               0                            ;
 333768                  34.210047148    16907.477015 daily_pattern_333768       ;
 333774                  27.066895745               0                            ;
 1760777                 24.313267432               0                            ;
 1760655                 35.463186766               0                            ;
 1760779                 30.625008835               0                            ;
 333767                  29.937142795               0                            ;
 410                     24.796551743               0                            ;
 1760778                 32.757567852    22137.302999 daily_pattern_1760778      ;
 1760692                 22.300665005               0                            ;
 1760929                 30.779621763               0                            ;
 1760656                 37.588188694               0                            ;
 6210                    37.576326428               0                            ;
 1760910                 38.674480084               0                            ;
 1760802                 26.365202841               0                            ;

[RESERVOIRS]
;ID                                   Head                  Pattern

[TANKS]
;ID                              Elevation           Init Level            Min Level            Max Level             Diameter           Min Volume Volume Curve         Overflow            

[PIPES]
;ID                   Node1                Node2                              Length             Diameter            Roughness           Minor Loss               Status
 5312447              1760778              1760802                     94.03392          150000             120               0                 Open   ;
 5312448              1760802              1760779                      1.98225          150000             120               0                 Open   ;
 5312452              333777               1760804                            0          150000             120               0                 Open   ;
 5312450              1760803              333774                       113.284          150000             120               0                 Open   ;
 5312330              1760694              1760695                      3.21593          150000             120               0                 Open   ;
 822648               333779               333780                       2.53166           63000             120               0                 Open   ;
 5312449              1760779              1760803                       1.9609          150000             120               0                 Open   ;
 5312331              1760695              1760692                      2.86196          150000             120               0                 Open   ;
 3953754              6210                 1344778                     13.46532          101000             120               0                 Open   ;
 3953389              5586                 1344480                      1.84391          152000             120               0                 Open   ;
 5312611              1760928              1760929                      0.28029          150000             120               0                 Open   ;
 406442               145317               6210                        48.07891          457000             120               0                 Open   ;
 5312422              1760779              1760780                      1.31328          150000             120               0                 Open   ;
 5312421              1760777              1760778                      1.28988          150000             120               0                 Open   ;
 5312446              1760801              1760656                            0          150000             120               0                 Open   ;
 822640               333767               333768                       2.53923           63000             120               0                 Open   ;
 5312593              1344480              1760910                      1.20028          152000             120               0                 Open   ;
 5312451              333774               333777                             0          150000             120               0                 Open   ;
 822647               333777               333778                       2.64793           63000             120               0                 Open   ;
 5312329              1760692              1760693                     51.60998          150000             120               0                 Open   ;
 5312445              1760780              1760801                     45.77355          150000             120               0                 Open   ;
 5312420              145317               1760777                      0.67203          150000             120               0                 Open   ;
 4758                 6210                 5586                        16.26173          457000             120               0                 Open   ;
 822641               333768               333769                       2.54183           63000             120               0                 Open   ;
 5312293              1760655              1760656                      7.32351          150000             120               0                 Open   ;
 5324925              1760695              1760655                       2.6243          150000             120               0                 Open   ;
 5312610              1760927              1760928                            0          150000             120               0                 Open   ;
 822650               333781               333779                        1.5614           63000             120               0                 Open   ;
 4187                 5586                 410                         75.84678          457000             120               0                 Open   ;
 5312609              1760656              1760927                     10.89386          150000             120               0                 Open   ;
 822644               333774               333767                       1.58545           63000             120               0                 Open   ;
 822649               333778               333781                        1.4585           63000             120               0                 Open   ;

[PUMPS]
;ID                   Node1                Node2                Properties          

[VALVES]
;ID                   Node1                Node2                            Diameter Type              Setting           Minor Loss

[TAGS]
;type      name       tag       

[DEMANDS]
;ID        Demand     Pattern   

[STATUS]
;ID        Setting   

[PATTERNS]
;ID        Multipliers

daily_pattern_179936 0.750000 0.799575 0.848933 0.897858 0.946137 0.993558
daily_pattern_179936 1.039914 1.085002 1.128626 1.170594 1.210723 1.248837
daily_pattern_179936 1.284769 1.318364 1.349473 1.377961 1.403703 1.426586
daily_pattern_179936 1.446511 1.463390 1.477150 1.487730 1.495084 1.499180
daily_pattern_179936 1.500000 1.497541 1.491812 1.482840 1.470664 1.455336
daily_pattern_179936 1.436924 1.415508 1.391182 1.364053 1.334238 1.301868
daily_pattern_179936 1.267086 1.230042 1.190899 1.149828 1.107009 1.062629
daily_pattern_179936 1.016882 0.969968 0.922091 0.873463 0.824294 0.774801
daily_pattern_179936 0.725199 0.675706 0.626537 0.577909 0.530032 0.483118
daily_pattern_179936 0.437371 0.392991 0.350172 0.309101 0.269958 0.232914
daily_pattern_179936 0.198132 0.165762 0.135947 0.108818 0.084492 0.063076
daily_pattern_179936 0.044664 0.029336 0.017160 0.008188 0.002459 0.000000
daily_pattern_179936 0.000820 0.004916 0.012270 0.022850 0.036610 0.053489
daily_pattern_179936 0.073414 0.096297 0.122039 0.150527 0.181636 0.215231
daily_pattern_179936 0.251163 0.289277 0.329406 0.371374 0.414998 0.460086
daily_pattern_179936 0.506442 0.553863 0.602142 0.651067 0.700425 0.750000

daily_pattern_333781 0.750000 0.799575 0.848933 0.897858 0.946137 0.993558
daily_pattern_333781 1.039914 1.085002 1.128626 1.170594 1.210723 1.248837
daily_pattern_333781 1.284769 1.318364 1.349473 1.377961 1.403703 1.426586
daily_pattern_333781 1.446511 1.463390 1.477150 1.487730 1.495084 1.499180
daily_pattern_333781 1.500000 1.497541 1.491812 1.482840 1.470664 1.455336
daily_pattern_333781 1.436924 1.415508 1.391182 1.364053 1.334238 1.301868
daily_pattern_333781 1.267086 1.230042 1.190899 1.149828 1.107009 1.062629
daily_pattern_333781 1.016882 0.969968 0.922091 0.873463 0.824294 0.774801
daily_pattern_333781 0.725199 0.675706 0.626537 0.577909 0.530032 0.483118
daily_pattern_333781 0.437371 0.392991 0.350172 0.309101 0.269958 0.232914
daily_pattern_333781 0.198132 0.165762 0.135947 0.108818 0.084492 0.063076
daily_pattern_333781 0.044664 0.029336 0.017160 0.008188 0.002459 0.000000
daily_pattern_333781 0.000820 0.004916 0.012270 0.022850 0.036610 0.053489
daily_pattern_333781 0.073414 0.096297 0.122039 0.150527 0.181636 0.215231
daily_pattern_333781 0.251163 0.289277 0.329406 0.371374 0.414998 0.460086
daily_pattern_333781 0.506442 0.553863 0.602142 0.651067 0.700425 0.750000

daily_pattern_333768 0.750000 0.799575 0.848933 0.897858 0.946137 0.993558
daily_pattern_333768 1.039914 1.085002 1.128626 1.170594 1.210723 1.248837
daily_pattern_333768 1.284769 1.318364 1.349473 1.377961 1.403703 1.426586
daily_pattern_333768 1.446511 1.463390 1.477150 1.487730 1.495084 1.499180
daily_pattern_333768 1.500000 1.497541 1.491812 1.482840 1.470664 1.455336
daily_pattern_333768 1.436924 1.415508 1.391182 1.364053 1.334238 1.301868
daily_pattern_333768 1.267086 1.230042 1.190899 1.149828 1.107009 1.062629
daily_pattern_333768 1.016882 0.969968 0.922091 0.873463 0.824294 0.774801
daily_pattern_333768 0.725199 0.675706 0.626537 0.577909 0.530032 0.483118
daily_pattern_333768 0.437371 0.392991 0.350172 0.309101 0.269958 0.232914
daily_pattern_333768 0.198132 0.165762 0.135947 0.108818 0.084492 0.063076
daily_pattern_333768 0.044664 0.029336 0.017160 0.008188 0.002459 0.000000
daily_pattern_333768 0.000820 0.004916 0.012270 0.022850 0.036610 0.053489
daily_pattern_333768 0.073414 0.096297 0.122039 0.150527 0.181636 0.215231
daily_pattern_333768 0.251163 0.289277 0.329406 0.371374 0.414998 0.460086
daily_pattern_333768 0.506442 0.553863 0.602142 0.651067 0.700425 0.750000

daily_pattern_1760778 0.750000 0.799575 0.848933 0.897858 0.946137 0.993558
daily_pattern_1760778 1.039914 1.085002 1.128626 1.170594 1.210723 1.248837
daily_pattern_1760778 1.284769 1.318364 1.349473 1.377961 1.403703 1.426586
daily_pattern_1760778 1.446511 1.463390 1.477150 1.487730 1.495084 1.499180
daily_pattern_1760778 1.500000 1.497541 1.491812 1.482840 1.470664 1.455336
daily_pattern_1760778 1.436924 1.415508 1.391182 1.364053 1.334238 1.301868
daily_pattern_1760778 1.267086 1.230042 1.190899 1.149828 1.107009 1.062629
daily_pattern_1760778 1.016882 0.969968 0.922091 0.873463 0.824294 0.774801
daily_pattern_1760778 0.725199 0.675706 0.626537 0.577909 0.530032 0.483118
daily_pattern_1760778 0.437371 0.392991 0.350172 0.309101 0.269958 0.232914
daily_pattern_1760778 0.198132 0.165762 0.135947 0.108818 0.084492 0.063076
daily_pattern_1760778 0.044664 0.029336 0.017160 0.008188 0.002459 0.000000
daily_pattern_1760778 0.000820 0.004916 0.012270 0.022850 0.036610 0.053489
daily_pattern_1760778 0.073414 0.096297 0.122039 0.150527 0.181636 0.215231
daily_pattern_1760778 0.251163 0.289277 0.329406 0.371374 0.414998 0.460086
daily_pattern_1760778 0.506442 0.553863 0.602142 0.651067 0.700425 0.750000

[CURVES]
;ID         X-Value      Y-Value     

[CONTROLS]

[RULES]

[ENERGY]
GLOBAL PRICE           0.0000

[EMITTERS]
;ID        Flow coefficient

[QUALITY]

[SOURCES]
;Node      Type       Quality    Pattern   

[REACTIONS]
;Type           Pipe/Tank               Coefficient

 ORDER BULK 1
 ORDER TANK 1
 ORDER WALL 1
 GLOBAL BULK 0.0000    
 GLOBAL WALL 0.0000    

[MIXING]
;Tank ID             Model Fraction

[TIMES]
DURATION             24:00:00
HYDRAULIC TIMESTEP   00:15:00
QUALITY TIMESTEP     00:06:00
PATTERN TIMESTEP     00:15:00
PATTERN START        00:00:00
REPORT TIMESTEP      00:15:00
REPORT START         00:00:00
START CLOCKTIME      00:00:00 AM
RULE TIMESTEP        00:06:00
STATISTIC            NONE      

[REPORT]

[OPTIONS]
UNITS                LPS                 
HEADLOSS             H-W                 
SPECIFIC GRAVITY     1
VISCOSITY            1
TRIALS               200
ACCURACY             0.001
CHECKFREQ            2
MAXCHECK             10
UNBALANCED           STOP                
PATTERN              1                   
DEMAND MULTIPLIER    1
PRESSURE             LPS                 
EMITTER EXPONENT     0.5
QUALITY              NONE                
DIFFUSIVITY          1
TOLERANCE            0.01

[COORDINATES]
;Node      X-Coord    Y-Coord   
1760928        537077.669300000     183477.786800001
1760927        537077.853600000     183476.496500000
333778         537194.576200000     183485.854200000
333781         537193.754200000     183484.649400000
333780         537191.447400000     183481.268300001
5586           537027.500000000     183432.900000000
1760694        537070.291900000     183474.500900000
333777         537196.068600000     183488.041500000
1760695        537070.125000000     183471.289300000
145317         537066.849200000     183381.998900000
1760801        537108.603600000     183460.636700001
1344480        537028.900000000     183434.100000000
1760780        537111.390200000     183458.486900000
1760693        537034.096800000     183433.437500000
1760804        537200.149600000     183479.580900000
1344778        537027.666200000     183419.374600001
333779         537192.874200000     183483.359600000
1760803        537113.707100000     183459.172700001
333769         537174.168700000     183506.764000000
333768         537174.107900000     183504.222899999
333774         537174.009300000     183500.099400001
1760777        537067.513900000     183382.478700001
1760655        537072.491400000     183470.154800000
1760779        537112.430000000     183457.684699999
333767         537174.047200000     183501.684400000
410            536983.600000000     183494.699999999
1760778        537068.553100000     183383.242799999
1760692        537069.976500000     183468.431200000
1760929        537077.594400000     183478.310900001
1760656        537079.095200000     183466.988800000
6210           537037.400000000     183420.000000000
1760910        537029.834300000     183434.853499999
1760802        537111.139000000     183456.180500001

[VERTICES]
;Link      X-Coord    Y-Coord   

[LABELS]

[BACKDROP]
UNITS    NONE

[END]
