[TITLE]

[JUNCTIONS]
;ID                      Elevation       Demand Pattern                 
 166774                  27.223661503               0                            ;
 1306523                 25.563765512               0                            ;
 558090                  22.825086785               0                            ;
 1775213                 26.027807673               0                            ;
 829857                   38.55711141               0                            ;
 834957                  27.416603259               0                            ;
 1304306                 22.406295721               0                            ;
 1548998                 33.373303233               0                            ;
 554864                  23.915903245               0                            ;
 1305612                 35.478660633               0                            ;
 557817                  33.984136527               0                            ;
 1001316                 32.741563036               0                            ;
 1303760                 20.488039778               0                            ;
 1304308                 20.627164764               0                            ;
 1732311                 34.573609121               0                            ;
 556813                  28.572210829               0                            ;
 567616                  30.635946709               0                            ;
 557808                  37.805733785               0                            ;
 1432678                 38.039132565               0                            ;
 1303709                 34.605665545               0                            ;
 1300249                 32.888834575               0                            ;
 1111165                 27.819614443               0                            ;
 833784                  29.754052975               0                            ;
 1305624                 28.858182955               0                            ;
 843944                  25.224635948               0                            ;
 831694                  23.828164406               0                            ;
 1732554                 31.136054885               0                            ;
 1352926                 26.783093936               0                            ;
 1732831                 20.398563777               0                            ;
 560087                  31.741547285               0                            ;
 1537912                 29.491381791               0                            ;
 1550413                 20.522763494               0                            ;
 1304201                   23.7513481               0                            ;
 829858                  24.616247123               0                            ;
 1756790                 33.351907975               0                            ;
 166775                  39.581330698               0                            ;
 1300158                 26.188400375               0                            ;
 565657                  36.297994139               0                            ;
 1299883                  29.98254103               0                            ;
 555377                  20.091995624               0                            ;
 1247358                  32.20152823               0                            ;
 931668                  27.376882329               0                            ;
 1304202                 26.262879247               0                            ;
 560099                  38.269331483               0                            ;
 1552046                 36.478175571               0                            ;
 1732565                 21.883291675               0                            ;
 556084                  26.849558514               0                            ;
 1111150                 26.130616678               0                            ;
 1775191                 39.649601326               0                            ;
 843945                  20.094300532               0                            ;
 1306546                 23.686382408               0                            ;
 1432676                 21.321452402    40110.751211 daily_pattern_1432676      ;
 558089                  32.581276071               0                            ;
 971514                  36.206214934               0                            ;
 1575041                 21.366336108               0                            ;
 1247349                 38.873074057               0                            ;
 1406306                 32.292260399               0                            ;
 1306545                 20.000695431               0                            ;
 1298394                  34.92371235               0                            ;
 1296789                 25.860548873               0                            ;
 554838                  27.310330936               0                            ;
 844172                  36.127740689               0                            ;
 1298163                 23.191390756               0                            ;
 1300569                 35.274146286               0                            ;
 834968                  26.915587435               0                            ;
 1304220                  30.08392618               0                            ;
 1435246                 22.438022187               0                            ;
 1301352                 34.482507819               0                            ;
 37447                   27.390772504               0                            ;
 1357086                 36.661165144               0                            ;
 1304106                  29.52739851               0                            ;
 1432685                 27.052093988               0                            ;
 837252                  37.445531595               0                            ;
 1732566                 25.494985449               0                            ;
 1247339                 30.072868608               0                            ;
 1298662                 34.616370746    17319.555513 daily_pattern_1298662      ;
 36494                   36.411384975               0                            ;
 465778                   26.62738122               0                            ;
 1303756                 32.135685758               0                            ;
 1304108                   23.1899904               0                            ;
 556809                  25.707247585               0                            ;
 554995                   21.53983401               0                            ;
 1301549                 29.997234495               0                            ;
 1646199                 26.661223994               0                            ;
 1552071                 38.185163877               0                            ;
 395997                  21.392990553               0                            ;
 831476                  27.255599408               0                            ;
 971515                  34.121263966               0                            ;
 465781                  20.999723002               0                            ;
 1112454                 39.710194158               0                            ;
 44495                   25.272011844    40618.585524 daily_pattern_44495        ;
 1298176                 39.803642946               0                            ;
 1435247                  37.85100215               0                            ;
 1303755                 20.748793861               0                            ;
 1304307                  20.91893221               0                            ;
 37446                   21.122484985               0                            ;
 1111163                 33.126181553               0                            ;
 1303761                 29.028918062               0                            ;
 1301859                  35.23296889               0                            ;
 1299882                 21.762173239               0                            ;
 837748                  33.453228175               0                            ;
 396009                  39.812312582               0                            ;
 843933                  30.257948335               0                            ;
 1432677                 30.330616013               0                            ;
 1436129                 37.734948384               0                            ;
 333107                  26.186749717               0                            ;
 554505                  20.902891071               0                            ;
 1732830                 28.638357617               0                            ;
 534136                  24.457921851               0                            ;
 1301553                 26.816191037               0                            ;
 1352917                 23.649346814               0                            ;
 1304303                 38.978621336               0                            ;
 1294374                 24.717436437               0                            ;
 833785                  29.457247969               0                            ;
 556817                  22.547321363               0                            ;
 1431021                 27.959843214               0                            ;
 1300159                 29.114880311               0                            ;
 1300563                 21.538626627               0                            ;
 1298668                 21.117016098               0                            ;
 1247341                 34.059539669               0                            ;
 1306608                 21.139864204               0                            ;
 831695                  22.583905534               0                            ;
 555814                  24.703817723               0                            ;
 1247340                 23.986716502               0                            ;
 1001314                 25.915984047               0                            ;
 567617                  36.091989306               0                            ;
 554497                  27.189777815               0                            ;
 465782                  34.082132038               0                            ;
 558092                  28.423990222               0                            ;
 558093                  31.300725807               0                            ;
 1732825                 24.547345363               0                            ;
 1550406                 31.481796868               0                            ;
 1111151                 22.236276241               0                            ;
 350142                  28.173086595               0                            ;
 843934                  26.719531002               0                            ;
 36493                   23.198039101               0                            ;
 565156                  22.509331349               0                            ;
 1304110                 20.557129111               0                            ;
 1300570                 20.516813715               0                            ;
 1304107                 38.045125618               0                            ;
 1300250                 26.018851792               0                            ;
 831699                  21.406077964               0                            ;
 1468178                 34.222426058               0                            ;
 554997                  27.397093647               0                            ;
 1303373                 21.761017736               0                            ;
 1298443                 29.795523361               0                            ;
 565656                  38.370357003               0                            ;
 1550403                 31.617763049               0                            ;
 834956                  24.801531355               0                            ;
 1732550                 31.085198707               0                            ;
 555376                  33.064349868               0                            ;
 1775185                  30.48089409               0                            ;
 1732558                 31.688378733               0                            ;
 1300247                   37.9946738               0                            ;
 556819                  33.972324074               0                            ;
 1302809                 38.424354163               0                            ;
 559683                  30.865533752               0                            ;
 1304112                 28.438677385               0                            ;
 558088                  38.602963708               0                            ;
 1247359                 22.435468582               0                            ;
 1552070                 20.040676367               0                            ;
 1300246                 25.975448987               0                            ;
 536089                  27.290665686               0                            ;
 1247357                 39.983857891               0                            ;
 1732829                  38.21991637               0                            ;
 1298669                 26.029677763               0                            ;
 1301548                 31.883390193               0                            ;
 567619                  22.909652811               0                            ;
 557809                  34.464713695               0                            ;
 554494                  33.358334133               0                            ;
 1300561                 24.704539129               0                            ;
 333109                  33.379455096               0                            ;
 1357097                 37.307156086               0                            ;
 1111166                 28.273422425               0                            ;
 971518                  35.746840016               0                            ;
 1431022                 21.926247783               0                            ;
 1443882                 38.352955755               0                            ;
 555379                  23.078157536               0                            ;
 554496                  29.040156043               0                            ;
 1732551                  26.49306401               0                            ;
 1001300                 23.778089788               0                            ;
 558091                   22.55638818               0                            ;
 1306544                 36.417996508               0                            ;
 1304113                 28.137813255               0                            ;
 1431018                 31.029750851               0                            ;
 465779                  25.571934573               0                            ;
 555358                  33.687497881               0                            ;
 834969                  23.326870991               0                            ;
 1550414                 25.398725782               0                            ;
 1771237                 23.829656384               0                            ;
 1574027                 25.760268422               0                            ;
 831477                  30.549732871               0                            ;
 1574032                 36.462715741               0                            ;
 557811                  30.000312986               0                            ;
 1112455                 36.288511023               0                            ;
 556818                  26.308430489               0                            ;
 1298395                     32.12774               0                            ;
 1732818                 38.141114887               0                            ;
 395995                  30.860248404               0                            ;
 843942                  20.513391068               0                            ;
 556810                  26.668419918               0                            ;
 1549001                 35.899173509               0                            ;
 1550404                 31.225242517               0                            ;
 166759                  20.868091738               0                            ;
 555380                  33.602521011               0                            ;
 1304995                 23.928470276               0                            ;
 831692                  20.171371142               0                            ;
 1300261                  26.92111588               0                            ;
 477826                  26.569815564               0                            ;
 837754                  25.963609441               0                            ;
 1305621                 22.008262362               0                            ;
 1732309                 22.002387143               0                            ;
 396007                  33.286762594               0                            ;
 833783                  39.018797357               0                            ;
 829856                  21.705745412               0                            ;
 1548991                 27.959868524               0                            ;
 1304758                 26.689565221               0                            ;
 556821                  38.809919827               0                            ;
 554994                  26.812555048               0                            ;
 834954                  35.646757308               0                            ;
 1552052                 28.873077045               0                            ;
 556820                  38.736239349               0                            ;
 1299246                 30.985953344               0                            ;
 556453                  27.664824852               0                            ;
 843941                  24.367911521               0                            ;
 554996                  38.346478627               0                            ;
 843950                  21.877728218               0                            ;
 534137                  31.733390091               0                            ;
 1323489                 30.420497656               0                            ;
 1300248                 22.230441547               0                            ;
 1304309                 20.883952083               0                            ;
 555368                  36.579408546               0                            ;
 1298442                 32.401812138               0                            ;
 477827                  34.417236669               0                            ;
 1303763                  30.05586133               0                            ;
 1304994                 22.513111101               0                            ;
 1552073                 20.009579951               0                            ;
 1247351                  26.56204228               0                            ;
 1732811                  34.33607855               0                            ;
 1732833                 36.931775157               0                            ;
 1574028                 29.865704575               0                            ;
 1247335                 29.226462884               0                            ;
 1732832                 24.469373578               0                            ;
 1351989                 37.786858533               0                            ;
 1300251                 30.832387458               0                            ;
 333108                  39.330513385      47823.1527 daily_pattern_333108       ;
 1732310                 31.508456285               0                            ;
 1549003                 32.552633686               0                            ;
 1552072                 20.788304075               0                            ;
 831691                  28.485056457               0                            ;
 844166                  30.233785419               0                            ;
 555813                  26.275911915               0                            ;
 1552069                 22.965092219               0                            ;
 1356769                  38.97319783               0                            ;
 1732821                  31.00344565               0                            ;
 554993                  32.290127077               0                            ;
 1305613                 25.853142254               0                            ;
 1732557                 39.950790714               0                            ;
 166760                  20.385268183               0                            ;
 1304111                 29.701689132               0                            ;
 1111164                 35.722646814               0                            ;
 555375                  32.093150591               0                            ;
 565679                  39.482729034               0                            ;
 1308161                 22.907533179               0                            ;
 1304109                 21.182099536               0                            ;
 555378                  23.337871458               0                            ;
 333106                  37.565135821               0                            ;
 1431020                 25.025683916               0                            ;
 1551810                 37.044244145               0                            ;
 1432674                 34.180378072               0                            ;
 1304760                 37.851697677               0                            ;
 1468180                 35.289904154               0                            ;
 1298406                 29.798851346               0                            ;
 931670                  25.940232364               0                            ;
 1732556                 34.413359244               0                            ;
 1550401                  35.66982752               0                            ;
 1304756                 34.834796725               0                            ;
 554493                  25.888433938               0                            ;
 1551811                 21.409028408               0                            ;
 1431017                  20.62634463               0                            ;
 1304761                 38.909480251               0                            ;
 554998                  26.258525667               0                            ;
 1303710                 22.060763804               0                            ;
 554986                  34.271397944               0                            ;
 554867                  37.051230023               0                            ;
 1304207                 37.535436963               0                            ;
 988476                  26.216170986               0                            ;
 843946                  32.233853687               0                            ;
 1548992                  20.87454022               0                            ;
 565678                   20.60032449               0                            ;
 1303713                 26.295325779               0                            ;
 1732308                 34.350028056               0                            ;
 1732555                 24.908056167               0                            ;
 831700                  28.278297997               0                            ;
 555369                   37.09204159               0                            ;
 1775218                 32.102322617               0                            ;
 831475                  29.044187012               0                            ;
 1298672                 36.256903866               0                            ;
 1304214                 24.712722299               0                            ;
 350143                  37.964144289               0                            ;
 1303762                 21.258572192               0                            ;
 1537902                 29.630524945               0                            ;
 1305617                 29.586067478               0                            ;
 1112456                 37.806336472               0                            ;
 834955                  32.572670403               0                            ;
 1247356                 35.956453898               0                            ;
 1732819                 27.959544572               0                            ;
 1732552                 35.493290648               0                            ;
 1537911                 36.212785639               0                            ;
 536090                  24.759764828               0                            ;
 556450                    24.2901302               0                            ;
 1732553                 23.306135531               0                            ;
 396008                  28.074473161               0                            ;
 567615                   26.18294257               0                            ;
 1408054                 33.375243418               0                            ;
 1432675                 26.635083889               0                            ;
 1301353                 38.745660696               0                            ;
 536091                  28.938357377               0                            ;
 1306543                 20.098130068               0                            ;
 844165                  38.701945051               0                            ;
 395996                  33.704009859               0                            ;
 1732812                 38.035576182               0                            ;
 1734506                 23.246798536               0                            ;
 1304304                 27.988339897               0                            ;
 1305616                 20.040815412               0                            ;
 1247344                 27.880180312               0                            ;
 1732549                 23.977611493               0                            ;
 166764                  22.800511326               0                            ;
 1300562                 31.406468918               0                            ;
 931669                  26.228404028               0                            ;
 1300594                 28.842950734               0                            ;
 1304305                 28.213552452               0                            ;
 1119929                 28.810034112               0                            ;
 1357098                  29.89793352               0                            ;
 1305623                  33.26153817               0                            ;
 554495                  35.824157022               0                            ;
 1300568                 24.843487305               0                            ;
 556812                  26.341603455               0                            ;
 560196                  25.010610699               0                            ;
 1298661                 25.776329468               0                            ;
 557810                  28.422410038               0                            ;
 1550405                 21.989873414               0                            ;
 1300567                 21.777970994               0                            ;
 1298671                  29.75144116               0                            ;
 1301214                 30.677313254               0                            ;
 1304216                 28.617426801               0                            ;
 1303757                 29.378614541               0                            ;
 554837                  22.570857858               0                            ;
 971517                  28.670454127               0                            ;
 536088                  39.549258183               0                            ;
 1549756                 37.142623384               0                            ;
 465780                  31.174765811               0                            ;
 1303368                 21.558144045               0                            ;
 1304206                 35.725577392               0                            ;
 1306542                 38.496955092               0                            ;
 1775186                 30.144490965               0                            ;
 1431019                 38.438341649               0                            ;
 1552074                  33.93246264               0                            ;
 1356764                 31.898355091               0                            ;
 559682                  36.766377274               0                            ;